MODEL 1
REMARK VINA RESULT:   -12.969      0.000      0.000
REMARK INTER + INTRA:         -19.083
REMARK INTER:                 -18.592
REMARK INTRA:                  -0.491
REMARK UNBOUND:                -0.806
REMARK Flexibility Score: inf
REMARK Active torsions [ 7 ] -> [ 7 ]
ROOT
ATOM      1  C1  LIG L   1      15.848  54.710  12.412  1.00  0.00     0.038 A 
ATOM      2  C2  LIG L   1      16.924  54.549  11.426  1.00  0.00    -0.029 A 
ATOM      3  C3  LIG L   1      17.911  53.534  11.659  1.00  0.00     0.007 A 
ATOM      4  C4  LIG L   1      17.841  52.695  12.831  1.00  0.00     0.024 A 
ATOM      5  C5  LIG L   1      16.795  52.847  13.788  1.00  0.00     0.035 A 
ATOM      6  C6  LIG L   1      15.794  53.876  13.558  1.00  0.00     0.047 A 
ATOM      7  C7  LIG L   1      17.045  55.415  10.150  1.00  0.00     0.045 C 
ENDROOT
BRANCH    1    8
ATOM      8  N1  LIG L   1      14.861  55.683  12.242  1.00  0.00    -0.283 N 
ATOM      9  H1  LIG L   1      13.989  55.430  11.859  1.00  0.00     0.155 HD
BRANCH    8   10
ATOM     10  C8  LIG L   1      15.093  57.000  12.604  1.00  0.00     0.220 A 
ATOM     11  C9  LIG L   1      14.240  59.218  12.773  1.00  0.00     0.077 A 
ATOM     12 C10  LIG L   1      15.490  59.685  13.297  1.00  0.00     0.048 A 
ATOM     13  N2  LIG L   1      14.089  57.888  12.448  1.00  0.00    -0.214 NA
ATOM     14 C11  LIG L   1      16.524  58.735  13.453  1.00  0.00     0.116 A 
ATOM     15  N3  LIG L   1      16.312  57.418  13.106  1.00  0.00    -0.223 NA
BRANCH   11   16
ATOM     16 C12  LIG L   1      13.052  60.102  12.548  1.00  0.00     0.019 A 
ATOM     17 C13  LIG L   1      11.753  62.235  12.902  1.00  0.00     0.020 A 
ATOM     18 C14  LIG L   1      12.920  61.421  13.153  1.00  0.00     0.013 A 
ATOM     19 C15  LIG L   1      10.726  61.708  12.043  1.00  0.00     0.111 A 
ATOM     20  N4  LIG L   1      10.864  60.437  11.465  1.00  0.00    -0.263 NA
ATOM     21 C16  LIG L   1      11.977  59.632  11.687  1.00  0.00     0.120 A 
ENDBRANCH   11   16
ENDBRANCH    8   10
ENDBRANCH    1    8
BRANCH    5   22
ATOM     22  N5  LIG L   1      16.787  51.965  14.929  1.00  0.00    -0.281 N 
ATOM     23 C17  LIG L   1      15.746  51.722  15.809  1.00  0.00     0.248 C 
ATOM     24  H2  LIG L   1      17.624  51.477  15.103  1.00  0.00     0.155 HD
ATOM     25  O1  LIG L   1      14.725  52.391  15.875  1.00  0.00    -0.270 OA
BRANCH   23   26
ATOM     26 C18  LIG L   1      15.861  50.578  16.765  1.00  0.00     0.037 A 
ATOM     27 C19  LIG L   1      17.132  49.877  16.961  1.00  0.00     0.013 A 
ATOM     28 C20  LIG L   1      14.686  50.157  17.498  1.00  0.00     0.013 A 
ATOM     29 C21  LIG L   1      17.212  48.766  17.877  1.00  0.00     0.002 A 
ATOM     30 C22  LIG L   1      14.768  49.068  18.395  1.00  0.00     0.002 A 
ATOM     31 C23  LIG L   1      16.015  48.351  18.605  1.00  0.00    -0.064 A 
BRANCH   31   32
ATOM     32 C24  LIG L   1      16.002  47.164  19.586  1.00  0.00    -0.043 C 
BRANCH   32   33
ATOM     33  N6  LIG L   1      17.281  46.844  20.288  1.00  0.00     0.380 N 
ATOM     34 C25  LIG L   1      17.551  47.848  21.382  1.00  0.00    -0.097 C 
ATOM     35 C26  LIG L   1      17.280  45.425  20.865  1.00  0.00    -0.097 C 
ATOM     36  H3  LIG L   1      18.026  46.895  19.593  1.00  0.00    -0.082 HD
ATOM     37 C27  LIG L   1      18.889  47.544  22.112  1.00  0.00    -0.098 C 
ATOM     38 C28  LIG L   1      18.633  45.099  21.576  1.00  0.00    -0.098 C 
ATOM     39  N7  LIG L   1      18.889  46.130  22.676  1.00  0.00     0.375 N 
ATOM     40 C29  LIG L   1      20.132  45.793  23.386  1.00  0.00    -0.096 C 
ATOM     41  H4  LIG L   1      18.130  46.103  23.357  1.00  0.00    -0.082 HD
ENDBRANCH   32   33
ENDBRANCH   31   32
ENDBRANCH   23   26
ENDBRANCH    5   22
TORSDOF 7
ENDMDL
MODEL 2
REMARK VINA RESULT:   -11.030      2.966     12.416
REMARK INTER + INTRA:         -16.350
REMARK INTER:                 -15.391
REMARK INTRA:                  -0.959
REMARK UNBOUND:                -0.806
REMARK Flexibility Score: inf
REMARK Active torsions [ 7 ] -> [ 7 ]
ROOT
ATOM      1  C1  LIG L   1      16.850  48.699  17.630  1.00  0.00     0.038 A 
ATOM      2  C2  LIG L   1      15.533  48.419  18.214  1.00  0.00    -0.029 A 
ATOM      3  C3  LIG L   1      14.469  49.349  17.966  1.00  0.00     0.007 A 
ATOM      4  C4  LIG L   1      14.693  50.525  17.162  1.00  0.00     0.024 A 
ATOM      5  C5  LIG L   1      15.970  50.798  16.590  1.00  0.00     0.035 A 
ATOM      6  C6  LIG L   1      17.053  49.860  16.841  1.00  0.00     0.047 A 
ATOM      7  C7  LIG L   1      15.234  47.171  19.079  1.00  0.00     0.045 C 
ENDROOT
BRANCH    1    8
ATOM      8  N1  LIG L   1      17.925  47.832  17.838  1.00  0.00    -0.283 N 
ATOM      9  H1  LIG L   1      17.977  46.990  17.331  1.00  0.00     0.155 HD
BRANCH    8   10
ATOM     10  C8  LIG L   1      18.921  48.145  18.751  1.00  0.00     0.220 A 
ATOM     11  C9  LIG L   1      20.942  49.326  19.193  1.00  0.00     0.077 A 
ATOM     12 C10  LIG L   1      20.979  48.810  20.531  1.00  0.00     0.048 A 
ATOM     13  N2  LIG L   1      19.909  48.973  18.354  1.00  0.00    -0.214 NA
ATOM     14 C11  LIG L   1      19.931  47.946  20.923  1.00  0.00     0.116 A 
ATOM     15  N3  LIG L   1      18.927  47.629  20.034  1.00  0.00    -0.223 NA
BRANCH   11   16
ATOM     16 C12  LIG L   1      21.979  50.248  18.630  1.00  0.00     0.019 A 
ATOM     17 C13  LIG L   1      24.197  50.706  17.520  1.00  0.00     0.020 A 
ATOM     18 C14  LIG L   1      23.229  49.774  18.051  1.00  0.00     0.013 A 
ATOM     19 C15  LIG L   1      23.895  52.112  17.582  1.00  0.00     0.111 A 
ATOM     20  N4  LIG L   1      22.687  52.556  18.140  1.00  0.00    -0.263 NA
ATOM     21 C16  LIG L   1      21.736  51.682  18.657  1.00  0.00     0.120 A 
ENDBRANCH   11   16
ENDBRANCH    8   10
ENDBRANCH    1    8
BRANCH    5   22
ATOM     22  N5  LIG L   1      16.114  51.989  15.790  1.00  0.00    -0.281 N 
ATOM     23 C17  LIG L   1      15.628  52.222  14.514  1.00  0.00     0.248 C 
ATOM     24  H2  LIG L   1      16.621  52.726  16.201  1.00  0.00     0.155 HD
ATOM     25  O1  LIG L   1      15.173  51.358  13.779  1.00  0.00    -0.270 OA
BRANCH   23   26
ATOM     26 C18  LIG L   1      15.663  53.614  13.971  1.00  0.00     0.037 A 
ATOM     27 C19  LIG L   1      16.927  54.343  13.832  1.00  0.00     0.013 A 
ATOM     28 C20  LIG L   1      14.420  54.249  13.587  1.00  0.00     0.013 A 
ATOM     29 C21  LIG L   1      16.931  55.691  13.320  1.00  0.00     0.002 A 
ATOM     30 C22  LIG L   1      14.429  55.569  13.086  1.00  0.00     0.002 A 
ATOM     31 C23  LIG L   1      15.667  56.318  12.943  1.00  0.00    -0.064 A 
BRANCH   31   32
ATOM     32 C24  LIG L   1      15.575  57.759  12.408  1.00  0.00    -0.043 C 
BRANCH   32   33
ATOM     33  N6  LIG L   1      14.307  58.505  12.666  1.00  0.00     0.380 N 
ATOM     34 C25  LIG L   1      14.602  59.894  13.176  1.00  0.00    -0.097 C 
ATOM     35 C26  LIG L   1      13.421  58.579  11.419  1.00  0.00    -0.097 C 
ATOM     36  H3  LIG L   1      13.794  57.987  13.380  1.00  0.00    -0.082 HD
ATOM     37 C27  LIG L   1      13.294  60.680  13.471  1.00  0.00    -0.098 C 
ATOM     38 C28  LIG L   1      12.088  59.343  11.713  1.00  0.00    -0.098 C 
ATOM     39  N7  LIG L   1      12.411  60.745  12.233  1.00  0.00     0.375 N 
ATOM     40 C29  LIG L   1      11.161  61.486  12.455  1.00  0.00    -0.096 C 
ATOM     41  H4  LIG L   1      12.950  61.255  11.533  1.00  0.00    -0.082 HD
ENDBRANCH   32   33
ENDBRANCH   31   32
ENDBRANCH   23   26
ENDBRANCH    5   22
TORSDOF 7
ENDMDL
MODEL 3
REMARK VINA RESULT:   -10.853      3.728     12.258
REMARK INTER + INTRA:         -16.101
REMARK INTER:                 -15.863
REMARK INTRA:                  -0.238
REMARK UNBOUND:                -0.806
REMARK Flexibility Score: inf
REMARK Active torsions [ 7 ] -> [ 7 ]
ROOT
ATOM      1  C1  LIG L   1      18.115  48.607  18.935  1.00  0.00     0.038 A 
ATOM      2  C2  LIG L   1      17.090  47.566  19.079  1.00  0.00    -0.029 A 
ATOM      3  C3  LIG L   1      15.971  47.588  18.181  1.00  0.00     0.007 A 
ATOM      4  C4  LIG L   1      15.864  48.605  17.165  1.00  0.00     0.024 A 
ATOM      5  C5  LIG L   1      16.860  49.615  17.020  1.00  0.00     0.035 A 
ATOM      6  C6  LIG L   1      17.995  49.599  17.930  1.00  0.00     0.047 A 
ATOM      7  C7  LIG L   1      17.156  46.448  20.146  1.00  0.00     0.045 C 
ENDROOT
BRANCH    1    8
ATOM      8  N1  LIG L   1      19.226  48.639  19.782  1.00  0.00    -0.283 N 
ATOM      9  H1  LIG L   1      19.109  48.880  20.730  1.00  0.00     0.155 HD
BRANCH    8   10
ATOM     10  C8  LIG L   1      20.491  48.336  19.303  1.00  0.00     0.220 A 
ATOM     11  C9  LIG L   1      22.586  49.147  18.511  1.00  0.00     0.077 A 
ATOM     12 C10  LIG L   1      23.057  47.806  18.313  1.00  0.00     0.048 A 
ATOM     13  N2  LIG L   1      21.318  49.359  19.002  1.00  0.00    -0.214 NA
ATOM     14 C11  LIG L   1      22.173  46.753  18.637  1.00  0.00     0.116 A 
ATOM     15  N3  LIG L   1      20.913  47.032  19.122  1.00  0.00    -0.223 NA
BRANCH   11   16
ATOM     16 C12  LIG L   1      23.403  50.366  18.212  1.00  0.00     0.019 A 
ATOM     17 C13  LIG L   1      24.969  51.706  16.759  1.00  0.00     0.020 A 
ATOM     18 C14  LIG L   1      24.199  50.508  17.000  1.00  0.00     0.013 A 
ATOM     19 C15  LIG L   1      24.931  52.752  17.747  1.00  0.00     0.111 A 
ATOM     20  N4  LIG L   1      24.159  52.605  18.909  1.00  0.00    -0.263 NA
ATOM     21 C16  LIG L   1      23.406  51.463  19.167  1.00  0.00     0.120 A 
ENDBRANCH   11   16
ENDBRANCH    8   10
ENDBRANCH    1    8
BRANCH    5   22
ATOM     22  N5  LIG L   1      16.689  50.593  15.974  1.00  0.00    -0.281 N 
ATOM     23 C17  LIG L   1      15.710  51.568  15.873  1.00  0.00     0.248 C 
ATOM     24  H2  LIG L   1      17.347  50.563  15.243  1.00  0.00     0.155 HD
ATOM     25  O1  LIG L   1      14.702  51.611  16.562  1.00  0.00    -0.270 OA
BRANCH   23   26
ATOM     26 C18  LIG L   1      15.867  52.644  14.847  1.00  0.00     0.037 A 
ATOM     27 C19  LIG L   1      14.808  53.628  14.610  1.00  0.00     0.013 A 
ATOM     28 C20  LIG L   1      17.088  52.700  14.071  1.00  0.00     0.013 A 
ATOM     29 C21  LIG L   1      14.978  54.645  13.603  1.00  0.00     0.002 A 
ATOM     30 C22  LIG L   1      17.251  53.699  13.086  1.00  0.00     0.002 A 
ATOM     31 C23  LIG L   1      16.214  54.684  12.826  1.00  0.00    -0.064 A 
BRANCH   31   32
ATOM     32 C24  LIG L   1      16.473  55.721  11.717  1.00  0.00    -0.043 C 
BRANCH   32   33
ATOM     33  N6  LIG L   1      15.838  57.064  11.874  1.00  0.00     0.380 N 
ATOM     34 C25  LIG L   1      14.342  56.929  12.018  1.00  0.00    -0.097 C 
ATOM     35 C26  LIG L   1      16.413  57.836  13.065  1.00  0.00    -0.097 C 
ATOM     36  H3  LIG L   1      16.046  57.596  11.029  1.00  0.00    -0.082 HD
ATOM     37 C27  LIG L   1      13.658  58.317  12.163  1.00  0.00    -0.098 C 
ATOM     38 C28  LIG L   1      15.753  59.247  13.201  1.00  0.00    -0.098 C 
ATOM     39  N7  LIG L   1      14.239  59.087  13.341  1.00  0.00     0.375 N 
ATOM     40 C29  LIG L   1      13.621  60.407  13.527  1.00  0.00    -0.096 C 
ATOM     41  H4  LIG L   1      14.027  58.529  14.168  1.00  0.00    -0.082 HD
ENDBRANCH   32   33
ENDBRANCH   31   32
ENDBRANCH   23   26
ENDBRANCH    5   22
TORSDOF 7
ENDMDL
MODEL 4
REMARK VINA RESULT:   -10.365      2.540     12.622
REMARK INTER + INTRA:         -15.413
REMARK INTER:                 -14.640
REMARK INTRA:                  -0.772
REMARK UNBOUND:                -0.806
REMARK Flexibility Score: inf
REMARK Active torsions [ 7 ] -> [ 7 ]
ROOT
ATOM      1  C1  LIG L   1      15.439  48.065  18.373  1.00  0.00     0.038 A 
ATOM      2  C2  LIG L   1      14.137  47.875  19.023  1.00  0.00    -0.029 A 
ATOM      3  C3  LIG L   1      13.117  48.859  18.799  1.00  0.00     0.007 A 
ATOM      4  C4  LIG L   1      13.370  50.001  17.955  1.00  0.00     0.024 A 
ATOM      5  C5  LIG L   1      14.632  50.186  17.320  1.00  0.00     0.035 A 
ATOM      6  C6  LIG L   1      15.671  49.193  17.546  1.00  0.00     0.047 A 
ATOM      7  C7  LIG L   1      13.808  46.668  19.932  1.00  0.00     0.045 C 
ENDROOT
BRANCH    1    8
ATOM      8  N1  LIG L   1      16.472  47.142  18.556  1.00  0.00    -0.283 N 
ATOM      9  H1  LIG L   1      16.486  46.316  18.020  1.00  0.00     0.155 HD
BRANCH    8   10
ATOM     10  C8  LIG L   1      17.476  47.377  19.482  1.00  0.00     0.220 A 
ATOM     11  C9  LIG L   1      19.731  48.037  19.874  1.00  0.00     0.077 A 
ATOM     12 C10  LIG L   1      19.563  47.856  21.288  1.00  0.00     0.048 A 
ATOM     13  N2  LIG L   1      18.676  47.791  19.024  1.00  0.00    -0.214 NA
ATOM     14 C11  LIG L   1      18.297  47.424  21.740  1.00  0.00     0.116 A 
ATOM     15  N3  LIG L   1      17.281  47.192  20.838  1.00  0.00    -0.223 NA
BRANCH   11   16
ATOM     16 C12  LIG L   1      21.012  48.486  19.242  1.00  0.00     0.019 A 
ATOM     17 C13  LIG L   1      23.287  48.048  18.244  1.00  0.00     0.020 A 
ATOM     18 C14  LIG L   1      22.070  47.563  18.852  1.00  0.00     0.013 A 
ATOM     19 C15  LIG L   1      23.428  49.466  18.037  1.00  0.00     0.111 A 
ATOM     20  N4  LIG L   1      22.402  50.345  18.415  1.00  0.00    -0.263 NA
ATOM     21 C16  LIG L   1      21.218  49.906  19.000  1.00  0.00     0.120 A 
ENDBRANCH   11   16
ENDBRANCH    8   10
ENDBRANCH    1    8
BRANCH    5   22
ATOM     22  N5  LIG L   1      14.807  51.348  16.483  1.00  0.00    -0.281 N 
ATOM     23 C17  LIG L   1      15.893  51.667  15.685  1.00  0.00     0.248 C 
ATOM     24  H2  LIG L   1      14.063  51.993  16.479  1.00  0.00     0.155 HD
ATOM     25  O1  LIG L   1      16.976  51.104  15.735  1.00  0.00    -0.270 OA
BRANCH   23   26
ATOM     26 C18  LIG L   1      15.762  52.783  14.699  1.00  0.00     0.037 A 
ATOM     27 C19  LIG L   1      16.699  52.925  13.583  1.00  0.00     0.013 A 
ATOM     28 C20  LIG L   1      14.692  53.743  14.866  1.00  0.00     0.013 A 
ATOM     29 C21  LIG L   1      16.560  54.020  12.656  1.00  0.00     0.002 A 
ATOM     30 C22  LIG L   1      14.558  54.815  13.955  1.00  0.00     0.002 A 
ATOM     31 C23  LIG L   1      15.477  54.982  12.842  1.00  0.00    -0.064 A 
BRANCH   31   32
ATOM     32 C24  LIG L   1      15.265  56.193  11.914  1.00  0.00    -0.043 C 
BRANCH   32   33
ATOM     33  N6  LIG L   1      14.536  57.368  12.479  1.00  0.00     0.380 N 
ATOM     34 C25  LIG L   1      15.476  58.533  12.672  1.00  0.00    -0.097 C 
ATOM     35 C26  LIG L   1      13.353  57.786  11.600  1.00  0.00    -0.097 C 
ATOM     36  H3  LIG L   1      14.164  57.083  13.385  1.00  0.00    -0.082 HD
ATOM     37 C27  LIG L   1      14.740  59.760  13.279  1.00  0.00    -0.098 C 
ATOM     38 C28  LIG L   1      12.588  59.002  12.217  1.00  0.00    -0.098 C 
ATOM     39  N7  LIG L   1      13.560  60.168  12.409  1.00  0.00     0.375 N 
ATOM     40 C29  LIG L   1      12.831  61.332  12.935  1.00  0.00    -0.096 C 
ATOM     41  H4  LIG L   1      13.957  60.436  11.508  1.00  0.00    -0.082 HD
ENDBRANCH   32   33
ENDBRANCH   31   32
ENDBRANCH   23   26
ENDBRANCH    5   22
TORSDOF 7
ENDMDL
MODEL 5
REMARK VINA RESULT:   -10.357      1.323      1.974
REMARK INTER + INTRA:         -15.402
REMARK INTER:                 -14.424
REMARK INTRA:                  -0.978
REMARK UNBOUND:                -0.806
REMARK Flexibility Score: inf
REMARK Active torsions [ 7 ] -> [ 7 ]
ROOT
ATOM      1  C1  LIG L   1      16.378  55.551  12.992  1.00  0.00     0.038 A 
ATOM      2  C2  LIG L   1      17.001  55.050  11.761  1.00  0.00    -0.029 A 
ATOM      3  C3  LIG L   1      17.494  53.702  11.751  1.00  0.00     0.007 A 
ATOM      4  C4  LIG L   1      17.376  52.867  12.920  1.00  0.00     0.024 A 
ATOM      5  C5  LIG L   1      16.768  53.350  14.116  1.00  0.00     0.035 A 
ATOM      6  C6  LIG L   1      16.269  54.716  14.133  1.00  0.00     0.047 A 
ATOM      7  C7  LIG L   1      17.148  55.897  10.476  1.00  0.00     0.045 C 
ENDROOT
BRANCH    1    8
ATOM      8  N1  LIG L   1      15.882  56.855  13.063  1.00  0.00    -0.283 N 
ATOM      9  H1  LIG L   1      16.448  57.572  13.431  1.00  0.00     0.155 HD
BRANCH    8   10
ATOM     10  C8  LIG L   1      14.601  57.150  12.623  1.00  0.00     0.220 A 
ATOM     11  C9  LIG L   1      12.957  58.823  12.205  1.00  0.00     0.077 A 
ATOM     12 C10  LIG L   1      12.022  57.828  11.764  1.00  0.00     0.048 A 
ATOM     13  N2  LIG L   1      14.215  58.443  12.617  1.00  0.00    -0.214 NA
ATOM     14 C11  LIG L   1      12.452  56.482  11.779  1.00  0.00     0.116 A 
ATOM     15  N3  LIG L   1      13.724  56.166  12.206  1.00  0.00    -0.223 NA
BRANCH   11   16
ATOM     16 C12  LIG L   1      12.650  60.288  12.251  1.00  0.00     0.019 A 
ATOM     17 C13  LIG L   1      11.101  62.258  11.960  1.00  0.00     0.020 A 
ATOM     18 C14  LIG L   1      11.346  60.835  11.899  1.00  0.00     0.013 A 
ATOM     19 C15  LIG L   1      12.178  63.118  12.374  1.00  0.00     0.111 A 
ATOM     20  N4  LIG L   1      13.429  62.579  12.712  1.00  0.00    -0.263 NA
ATOM     21 C16  LIG L   1      13.693  61.214  12.664  1.00  0.00     0.120 A 
ENDBRANCH   11   16
ENDBRANCH    8   10
ENDBRANCH    1    8
BRANCH    5   22
ATOM     22  N5  LIG L   1      16.678  52.453  15.242  1.00  0.00    -0.281 N 
ATOM     23 C17  LIG L   1      15.761  51.436  15.449  1.00  0.00     0.248 C 
ATOM     24  H2  LIG L   1      17.351  52.579  15.949  1.00  0.00     0.155 HD
ATOM     25  O1  LIG L   1      14.741  51.281  14.793  1.00  0.00    -0.270 OA
BRANCH   23   26
ATOM     26 C18  LIG L   1      16.004  50.458  16.553  1.00  0.00     0.037 A 
ATOM     27 C19  LIG L   1      14.892  49.806  17.249  1.00  0.00     0.013 A 
ATOM     28 C20  LIG L   1      17.367  50.165  16.942  1.00  0.00     0.013 A 
ATOM     29 C21  LIG L   1      15.154  48.879  18.322  1.00  0.00     0.002 A 
ATOM     30 C22  LIG L   1      17.620  49.256  17.993  1.00  0.00     0.002 A 
ATOM     31 C23  LIG L   1      16.536  48.599  18.704  1.00  0.00    -0.064 A 
BRANCH   31   32
ATOM     32 C24  LIG L   1      16.908  47.640  19.851  1.00  0.00    -0.043 C 
BRANCH   32   33
ATOM     33  N6  LIG L   1      18.344  47.583  20.255  1.00  0.00     0.380 N 
ATOM     34 C25  LIG L   1      18.494  47.888  21.725  1.00  0.00    -0.097 C 
ATOM     35 C26  LIG L   1      18.979  46.227  19.932  1.00  0.00    -0.097 C 
ATOM     36  H3  LIG L   1      18.837  48.293  19.713  1.00  0.00    -0.082 HD
ATOM     37 C27  LIG L   1      19.985  47.855  22.163  1.00  0.00    -0.098 C 
ATOM     38 C28  LIG L   1      20.487  46.193  20.341  1.00  0.00    -0.098 C 
ATOM     39  N7  LIG L   1      20.616  46.509  21.832  1.00  0.00     0.375 N 
ATOM     40 C29  LIG L   1      22.028  46.421  22.232  1.00  0.00    -0.096 C 
ATOM     41  H4  LIG L   1      20.099  45.819  22.376  1.00  0.00    -0.082 HD
ENDBRANCH   32   33
ENDBRANCH   31   32
ENDBRANCH   23   26
ENDBRANCH    5   22
TORSDOF 7
ENDMDL
