MODEL 1
REMARK VINA RESULT:   -11.192      0.000      0.000
REMARK INTER + INTRA:         -14.733
REMARK INTER:                 -14.354
REMARK INTRA:                  -0.378
REMARK UNBOUND:                -0.269
REMARK  5 active torsions:
REMARK  status: ('A' for Active; 'I' for Inactive)
REMARK    1  A    between atoms: C8_1  and  N1_20 
REMARK    2  A    between atoms: N2_4  and  C13_8 
REMARK    3  A    between atoms: C13_8  and  C14_9 
REMARK    4  A    between atoms: C14_9  and  C15_10 
REMARK       I    between atoms: N1_20  and  C7_21 
REMARK    5  A    between atoms: C7_21  and  C4_24 
ROOT
ATOM      1  C8  <0> d          16.284  53.653  14.759  0.00  0.00     0.087 C 
ATOM      2  C9  <0> d          15.362  53.447  13.554  0.00  0.00     0.053 C 
ATOM      3  C10 <0> d          15.043  54.804  12.924  0.00  0.00     0.237 C 
ATOM      4  N2  <0> d          16.287  55.448  12.485  0.00  0.00    -0.071 N 
ATOM      5  C11 <0> d          17.145  55.715  13.645  0.00  0.00     0.237 C 
ATOM      6  C12 <0> d          17.545  54.392  14.304  0.00  0.00     0.053 C 
ATOM      7  H26 <0> d          16.770  54.840  11.843  0.00  0.00     0.279 HD
ENDROOT
BRANCH   4   8
ATOM      8  C13 <0> d          15.970  56.714  11.811  0.00  0.00     0.239 C 
BRANCH   8   9
ATOM      9  C14 <0> d          15.302  57.668  12.804  0.00  0.00     0.068 C 
BRANCH   9  10
ATOM     10  C15 <0> d          13.974  58.118  12.252  0.00  0.00    -0.029 A 
ATOM     11  C18 <0> d          13.380  59.450  12.387  0.00  0.00    -0.002 A 
ATOM     12  C17 <0> d          12.147  59.397  11.710  0.00  0.00     0.042 A 
ATOM     13  C19 <0> d          13.785  60.635  13.004  0.00  0.00     0.014 A 
ATOM     14  C22 <0> d          11.346  60.533  11.663  0.00  0.00     0.030 A 
ATOM     15  N3  <0> d          12.011  58.120  11.214  0.00  0.00    -0.365 N 
ATOM     16  C21 <0> d          11.762  61.689  12.286  0.00  0.00     0.002 A 
ATOM     17  C20 <0> d          12.980  61.738  12.949  0.00  0.00     0.001 A 
ATOM     18  C16 <0> d          13.109  57.372  11.546  0.00  0.00     0.096 A 
ATOM     19  H1  <0> d          11.251  57.798  10.705  0.00  0.00     0.165 HD
ENDBRANCH   9  10
ENDBRANCH   8   9
ENDBRANCH   4   8
BRANCH   1  20
ATOM     20  N1  <0> d          16.654  52.352  15.322  0.00  0.00    -0.352 N 
ATOM     21  H7  <0> d          17.545  51.997  15.176  0.00  0.00     0.163 HD
ATOM     22  C7  <0> d          15.757  51.651  16.042  0.00  0.00     0.252 C 
ATOM     23  O1  <0> d          14.641  52.095  16.225  0.00  0.00    -0.268 OA
BRANCH  22  24
ATOM     24  C4  <0> d          16.131  50.336  16.609  0.00  0.00     0.032 A 
ATOM     25  C5  <0> d          15.196  49.301  16.653  0.00  0.00     0.017 A 
ATOM     26  C6  <0> d          15.552  48.078  17.184  0.00  0.00     0.001 A 
ATOM     27  C1  <0> d          16.831  47.877  17.671  0.00  0.00     0.000 A 
ATOM     28  C2  <0> d          17.762  48.899  17.630  0.00  0.00     0.001 A 
ATOM     29  C3  <0> d          17.420  50.127  17.102  0.00  0.00     0.017 A 
ENDBRANCH  22  24
ENDBRANCH   1  20
TORSDOF 5
ENDMDL
MODEL 2
REMARK VINA RESULT:   -11.065      0.849      1.157
REMARK INTER + INTRA:         -14.568
REMARK INTER:                 -14.012
REMARK INTRA:                  -0.556
REMARK UNBOUND:                -0.269
REMARK  5 active torsions:
REMARK  status: ('A' for Active; 'I' for Inactive)
REMARK    1  A    between atoms: C8_1  and  N1_20 
REMARK    2  A    between atoms: N2_4  and  C13_8 
REMARK    3  A    between atoms: C13_8  and  C14_9 
REMARK    4  A    between atoms: C14_9  and  C15_10 
REMARK       I    between atoms: N1_20  and  C7_21 
REMARK    5  A    between atoms: C7_21  and  C4_24 
ROOT
ATOM      1  C8  <0> d          16.150  52.780  14.394  0.00  0.00     0.087 C 
ATOM      2  C9  <0> d          17.404  53.515  13.914  0.00  0.00     0.053 C 
ATOM      3  C10 <0> d          17.026  54.477  12.786  0.00  0.00     0.237 C 
ATOM      4  N2  <0> d          16.044  55.452  13.278  0.00  0.00    -0.071 N 
ATOM      5  C11 <0> d          14.811  54.761  13.672  0.00  0.00     0.237 C 
ATOM      6  C12 <0> d          15.105  53.809  14.835  0.00  0.00     0.053 C 
ATOM      7  H26 <0> d          16.426  55.938  14.074  0.00  0.00     0.279 HD
ENDROOT
BRANCH   4   8
ATOM      8  C13 <0> d          15.742  56.420  12.215  0.00  0.00     0.239 C 
BRANCH   8   9
ATOM      9  C14 <0> d          15.323  57.751  12.842  0.00  0.00     0.068 C 
BRANCH   9  10
ATOM     10  C15 <0> d          13.979  58.161  12.297  0.00  0.00    -0.029 A 
ATOM     11  C18 <0> d          13.357  59.482  12.414  0.00  0.00    -0.002 A 
ATOM     12  C17 <0> d          12.118  59.389  11.753  0.00  0.00     0.042 A 
ATOM     13  C19 <0> d          13.743  60.688  13.003  0.00  0.00     0.014 A 
ATOM     14  C22 <0> d          11.292  60.506  11.693  0.00  0.00     0.030 A 
ATOM     15  N3  <0> d          12.006  58.100  11.283  0.00  0.00    -0.365 N 
ATOM     16  C21 <0> d          11.689  61.684  12.289  0.00  0.00     0.002 A 
ATOM     17  C20 <0> d          12.913  61.772  12.937  0.00  0.00     0.001 A 
ATOM     18  C16 <0> d          13.123  57.384  11.616  0.00  0.00     0.096 A 
ATOM     19  H1  <0> d          11.247  57.752  10.789  0.00  0.00     0.165 HD
ENDBRANCH   9  10
ENDBRANCH   8   9
ENDBRANCH   4   8
BRANCH   1  20
ATOM     20  N1  <0> d          16.492  51.914  15.524  0.00  0.00    -0.352 N 
ATOM     21  H7  <0> d          17.254  52.128  16.086  0.00  0.00     0.163 HD
ATOM     22  C7  <0> d          15.749  50.821  15.784  0.00  0.00     0.252 C 
ATOM     23  O1  <0> d          14.795  50.552  15.081  0.00  0.00    -0.268 OA
BRANCH  22  24
ATOM     24  C4  <0> d          16.095  49.945  16.925  0.00  0.00     0.032 A 
ATOM     25  C5  <0> d          15.085  49.357  17.688  0.00  0.00     0.017 A 
ATOM     26  C6  <0> d          15.415  48.542  18.751  0.00  0.00     0.001 A 
ATOM     27  C1  <0> d          16.742  48.307  19.061  0.00  0.00     0.000 A 
ATOM     28  C2  <0> d          17.749  48.887  18.309  0.00  0.00     0.001 A 
ATOM     29  C3  <0> d          17.432  49.705  17.243  0.00  0.00     0.017 A 
ENDBRANCH  22  24
ENDBRANCH   1  20
TORSDOF 5
ENDMDL
MODEL 3
REMARK VINA RESULT:   -10.173      1.749      2.735
REMARK INTER + INTRA:         -13.416
REMARK INTER:                 -12.725
REMARK INTRA:                  -0.691
REMARK UNBOUND:                -0.269
REMARK  5 active torsions:
REMARK  status: ('A' for Active; 'I' for Inactive)
REMARK    1  A    between atoms: C8_1  and  N1_20 
REMARK    2  A    between atoms: N2_4  and  C13_8 
REMARK    3  A    between atoms: C13_8  and  C14_9 
REMARK    4  A    between atoms: C14_9  and  C15_10 
REMARK       I    between atoms: N1_20  and  C7_21 
REMARK    5  A    between atoms: C7_21  and  C4_24 
ROOT
ATOM      1  C8  <0> d          15.943  52.252  15.068  0.00  0.00     0.087 C 
ATOM      2  C9  <0> d          15.734  53.732  15.404  0.00  0.00     0.053 C 
ATOM      3  C10 <0> d          16.573  54.589  14.454  0.00  0.00     0.237 C 
ATOM      4  N2  <0> d          16.159  54.337  13.068  0.00  0.00    -0.071 N 
ATOM      5  C11 <0> d          16.423  52.938  12.715  0.00  0.00     0.237 C 
ATOM      6  C12 <0> d          15.578  52.017  13.600  0.00  0.00     0.053 C 
ATOM      7  H26 <0> d          15.173  54.527  12.974  0.00  0.00     0.279 HD
ENDROOT
BRANCH   4   8
ATOM      8  C13 <0> d          16.913  55.219  12.166  0.00  0.00     0.239 C 
BRANCH   8   9
ATOM      9  C14 <0> d          15.945  56.165  11.452  0.00  0.00     0.068 C 
BRANCH   9  10
ATOM     10  C15 <0> d          15.796  57.431  12.256  0.00  0.00    -0.029 A 
ATOM     11  C18 <0> d          14.635  58.323  12.269  0.00  0.00    -0.002 A 
ATOM     12  C17 <0> d          14.952  59.361  13.165  0.00  0.00     0.042 A 
ATOM     13  C19 <0> d          13.400  58.319  11.618  0.00  0.00     0.014 A 
ATOM     14  C22 <0> d          14.025  60.373  13.391  0.00  0.00     0.030 A 
ATOM     15  N3  <0> d          16.218  59.110  13.644  0.00  0.00    -0.365 N 
ATOM     16  C21 <0> d          12.816  60.353  12.731  0.00  0.00     0.002 A 
ATOM     17  C20 <0> d          12.506  59.326  11.852  0.00  0.00     0.001 A 
ATOM     18  C16 <0> d          16.705  57.956  13.093  0.00  0.00     0.096 A 
ATOM     19  H1  <0> d          16.694  59.668  14.279  0.00  0.00     0.165 HD
ENDBRANCH   9  10
ENDBRANCH   8   9
ENDBRANCH   4   8
BRANCH   1  20
ATOM     20  N1  <0> d          15.084  51.430  15.924  0.00  0.00    -0.352 N 
ATOM     21  H7  <0> d          14.125  51.577  15.933  0.00  0.00     0.163 HD
ATOM     22  C7  <0> d          15.627  50.469  16.697  0.00  0.00     0.252 C 
ATOM     23  O1  <0> d          16.828  50.284  16.685  0.00  0.00    -0.268 OA
BRANCH  22  24
ATOM     24  C4  <0> d          14.760  49.639  17.561  0.00  0.00     0.032 A 
ATOM     25  C5  <0> d          13.373  49.794  17.518  0.00  0.00     0.017 A 
ATOM     26  C6  <0> d          12.571  49.016  18.327  0.00  0.00     0.001 A 
ATOM     27  C1  <0> d          13.137  48.084  19.179  0.00  0.00     0.000 A 
ATOM     28  C2  <0> d          14.511  47.926  19.226  0.00  0.00     0.001 A 
ATOM     29  C3  <0> d          15.325  48.697  18.422  0.00  0.00     0.017 A 
ENDBRANCH  22  24
ENDBRANCH   1  20
TORSDOF 5
ENDMDL
MODEL 4
REMARK VINA RESULT:   -10.104      2.017      9.965
REMARK INTER + INTRA:         -13.326
REMARK INTER:                 -13.161
REMARK INTRA:                  -0.165
REMARK UNBOUND:                -0.269
REMARK  5 active torsions:
REMARK  status: ('A' for Active; 'I' for Inactive)
REMARK    1  A    between atoms: C8_1  and  N1_20 
REMARK    2  A    between atoms: N2_4  and  C13_8 
REMARK    3  A    between atoms: C13_8  and  C14_9 
REMARK    4  A    between atoms: C14_9  and  C15_10 
REMARK       I    between atoms: N1_20  and  C7_21 
REMARK    5  A    between atoms: C7_21  and  C4_24 
ROOT
ATOM      1  C8  <0> d          15.239  55.932  12.875  0.00  0.00     0.087 C 
ATOM      2  C9  <0> d          14.247  55.082  13.674  0.00  0.00     0.053 C 
ATOM      3  C10 <0> d          14.787  53.655  13.794  0.00  0.00     0.237 C 
ATOM      4  N2  <0> d          16.083  53.675  14.482  0.00  0.00    -0.071 N 
ATOM      5  C11 <0> d          17.059  54.427  13.686  0.00  0.00     0.237 C 
ATOM      6  C12 <0> d          16.606  55.884  13.562  0.00  0.00     0.053 C 
ATOM      7  H26 <0> d          15.976  54.113  15.384  0.00  0.00     0.279 HD
ENDROOT
BRANCH   4   8
ATOM      8  C13 <0> d          16.560  52.297  14.664  0.00  0.00     0.239 C 
BRANCH   8   9
ATOM      9  C14 <0> d          15.375  51.386  14.993  0.00  0.00     0.068 C 
BRANCH   9  10
ATOM     10  C15 <0> d          15.724  50.516  16.173  0.00  0.00    -0.029 A 
ATOM     11  C18 <0> d          14.785  49.940  17.139  0.00  0.00    -0.002 A 
ATOM     12  C17 <0> d          15.566  49.206  18.050  0.00  0.00     0.042 A 
ATOM     13  C19 <0> d          13.399  49.987  17.291  0.00  0.00     0.014 A 
ATOM     14  C22 <0> d          14.942  48.532  19.095  0.00  0.00     0.030 A 
ATOM     15  N3  <0> d          16.880  49.343  17.661  0.00  0.00    -0.365 N 
ATOM     16  C21 <0> d          13.573  48.599  19.231  0.00  0.00     0.002 A 
ATOM     17  C20 <0> d          12.806  49.321  18.327  0.00  0.00     0.001 A 
ATOM     18  C16 <0> d          16.954  50.126  16.541  0.00  0.00     0.096 A 
ATOM     19  H1  <0> d          17.639  48.943  18.113  0.00  0.00     0.165 HD
ENDBRANCH   9  10
ENDBRANCH   8   9
ENDBRANCH   4   8
BRANCH   1  20
ATOM     20  N1  <0> d          14.765  57.317  12.821  0.00  0.00    -0.352 N 
ATOM     21  H7  <0> d          15.300  58.028  13.208  0.00  0.00     0.163 HD
ATOM     22  C7  <0> d          13.587  57.603  12.233  0.00  0.00     0.252 C 
ATOM     23  O1  <0> d          12.917  56.713  11.748  0.00  0.00    -0.268 OA
BRANCH  22  24
ATOM     24  C4  <0> d          13.109  59.002  12.180  0.00  0.00     0.032 A 
ATOM     25  C5  <0> d          11.995  59.332  11.405  0.00  0.00     0.017 A 
ATOM     26  C6  <0> d          11.554  60.639  11.360  0.00  0.00     0.001 A 
ATOM     27  C1  <0> d          12.212  61.620  12.079  0.00  0.00     0.000 A 
ATOM     28  C2  <0> d          13.316  61.299  12.849  0.00  0.00     0.001 A 
ATOM     29  C3  <0> d          13.768  59.997  12.903  0.00  0.00     0.017 A 
ENDBRANCH  22  24
ENDBRANCH   1  20
TORSDOF 5
ENDMDL
MODEL 5
REMARK VINA RESULT:    -9.646      1.913     10.199
REMARK INTER + INTRA:         -12.735
REMARK INTER:                 -12.416
REMARK INTRA:                  -0.319
REMARK UNBOUND:                -0.269
REMARK  5 active torsions:
REMARK  status: ('A' for Active; 'I' for Inactive)
REMARK    1  A    between atoms: C8_1  and  N1_20 
REMARK    2  A    between atoms: N2_4  and  C13_8 
REMARK    3  A    between atoms: C13_8  and  C14_9 
REMARK    4  A    between atoms: C14_9  and  C15_10 
REMARK       I    between atoms: N1_20  and  C7_21 
REMARK    5  A    between atoms: C7_21  and  C4_24 
ROOT
ATOM      1  C8  <0> d          15.007  56.154  12.601  0.00  0.00     0.087 C 
ATOM      2  C9  <0> d          14.088  55.266  13.445  0.00  0.00     0.053 C 
ATOM      3  C10 <0> d          14.627  53.833  13.440  0.00  0.00     0.237 C 
ATOM      4  N2  <0> d          15.982  53.814  14.004  0.00  0.00    -0.071 N 
ATOM      5  C11 <0> d          16.884  54.604  13.159  0.00  0.00     0.237 C 
ATOM      6  C12 <0> d          16.432  56.067  13.153  0.00  0.00     0.053 C 
ATOM      7  H26 <0> d          15.963  54.205  14.933  0.00  0.00     0.279 HD
ENDROOT
BRANCH   4   8
ATOM      8  C13 <0> d          16.464  52.428  14.069  0.00  0.00     0.239 C 
BRANCH   8   9
ATOM      9  C14 <0> d          16.847  52.088  15.511  0.00  0.00     0.068 C 
BRANCH   9  10
ATOM     10  C15 <0> d          16.070  50.880  15.966  0.00  0.00    -0.029 A 
ATOM     11  C18 <0> d          16.524  49.855  16.908  0.00  0.00    -0.002 A 
ATOM     12  C17 <0> d          15.464  48.936  17.024  0.00  0.00     0.042 A 
ATOM     13  C19 <0> d          17.699  49.657  17.634  0.00  0.00     0.014 A 
ATOM     14  C22 <0> d          15.603  47.839  17.867  0.00  0.00     0.030 A 
ATOM     15  N3  <0> d          14.453  49.377  16.201  0.00  0.00    -0.365 N 
ATOM     16  C21 <0> d          16.776  47.658  18.568  0.00  0.00     0.002 A 
ATOM     17  C20 <0> d          17.817  48.569  18.452  0.00  0.00     0.001 A 
ATOM     18  C16 <0> d          14.831  50.536  15.579  0.00  0.00     0.096 A 
ATOM     19  H1  <0> d          13.599  48.933  16.081  0.00  0.00     0.165 HD
ENDBRANCH   9  10
ENDBRANCH   8   9
ENDBRANCH   4   8
BRANCH   1  20
ATOM     20  N1  <0> d          14.540  57.541  12.663  0.00  0.00    -0.352 N 
ATOM     21  H7  <0> d          15.067  58.209  13.128  0.00  0.00     0.163 HD
ATOM     22  C7  <0> d          13.379  57.887  12.074  0.00  0.00     0.252 C 
ATOM     23  O1  <0> d          12.719  57.050  11.491  0.00  0.00    -0.268 OA
BRANCH  22  24
ATOM     24  C4  <0> d          12.907  59.288  12.138  0.00  0.00     0.032 A 
ATOM     25  C5  <0> d          13.644  60.244  12.840  0.00  0.00     0.017 A 
ATOM     26  C6  <0> d          13.198  61.548  12.895  0.00  0.00     0.001 A 
ATOM     27  C1  <0> d          12.026  61.910  12.256  0.00  0.00     0.000 A 
ATOM     28  C2  <0> d          11.291  60.968  11.558  0.00  0.00     0.001 A 
ATOM     29  C3  <0> d          11.726  59.660  11.495  0.00  0.00     0.017 A 
ENDBRANCH  22  24
ENDBRANCH   1  20
TORSDOF 5
ENDMDL
MODEL 6
REMARK VINA RESULT:    -9.634      3.792     11.558
REMARK INTER + INTRA:         -12.719
REMARK INTER:                 -12.163
REMARK INTRA:                  -0.556
REMARK UNBOUND:                -0.269
REMARK  5 active torsions:
REMARK  status: ('A' for Active; 'I' for Inactive)
REMARK    1  A    between atoms: C8_1  and  N1_20 
REMARK    2  A    between atoms: N2_4  and  C13_8 
REMARK    3  A    between atoms: C13_8  and  C14_9 
REMARK    4  A    between atoms: C14_9  and  C15_10 
REMARK       I    between atoms: N1_20  and  C7_21 
REMARK    5  A    between atoms: C7_21  and  C4_24 
ROOT
ATOM      1  C8  <0> d          16.011  50.986  15.824  0.00  0.00     0.087 C 
ATOM      2  C9  <0> d          14.686  51.210  16.557  0.00  0.00     0.053 C 
ATOM      3  C10 <0> d          14.186  49.877  17.117  0.00  0.00     0.237 C 
ATOM      4  N2  <0> d          15.177  49.333  18.053  0.00  0.00    -0.071 N 
ATOM      5  C11 <0> d          16.428  49.047  17.342  0.00  0.00     0.237 C 
ATOM      6  C12 <0> d          17.015  50.349  16.790  0.00  0.00     0.053 C 
ATOM      7  H26 <0> d          15.352  50.005  18.783  0.00  0.00     0.279 HD
ENDROOT
BRANCH   4   8
ATOM      8  C13 <0> d          14.659  48.093  18.646  0.00  0.00     0.239 C 
BRANCH   8   9
ATOM      9  C14 <0> d          14.826  48.147  20.166  0.00  0.00     0.068 C 
BRANCH   9  10
ATOM     10  C15 <0> d          15.543  46.907  20.636  0.00  0.00    -0.029 A 
ATOM     11  C18 <0> d          16.960  46.594  20.443  0.00  0.00    -0.002 A 
ATOM     12  C17 <0> d          17.169  45.342  21.053  0.00  0.00     0.042 A 
ATOM     13  C19 <0> d          18.025  47.254  19.828  0.00  0.00     0.014 A 
ATOM     14  C22 <0> d          18.440  44.779  21.034  0.00  0.00     0.030 A 
ATOM     15  N3  <0> d          15.958  44.934  21.564  0.00  0.00    -0.365 N 
ATOM     16  C21 <0> d          19.475  45.444  20.414  0.00  0.00     0.002 A 
ATOM     17  C20 <0> d          19.265  46.680  19.818  0.00  0.00     0.001 A 
ATOM     18  C16 <0> d          15.001  45.878  21.307  0.00  0.00     0.096 A 
ATOM     19  H1  <0> d          15.805  44.100  22.037  0.00  0.00     0.165 HD
ENDBRANCH   9  10
ENDBRANCH   8   9
ENDBRANCH   4   8
BRANCH   1  20
ATOM     20  N1  <0> d          16.533  52.270  15.351  0.00  0.00    -0.352 N 
ATOM     21  H7  <0> d          17.198  52.745  15.874  0.00  0.00     0.163 HD
ATOM     22  C7  <0> d          16.092  52.789  14.189  0.00  0.00     0.252 C 
ATOM     23  O1  <0> d          15.260  52.194  13.534  0.00  0.00    -0.268 OA
BRANCH  22  24
ATOM     24  C4  <0> d          16.619  54.087  13.712  0.00  0.00     0.032 A 
ATOM     25  C5  <0> d          17.740  54.654  14.320  0.00  0.00     0.017 A 
ATOM     26  C6  <0> d          18.226  55.864  13.870  0.00  0.00     0.001 A 
ATOM     27  C1  <0> d          17.606  56.514  12.818  0.00  0.00     0.000 A 
ATOM     28  C2  <0> d          16.495  55.957  12.210  0.00  0.00     0.001 A 
ATOM     29  C3  <0> d          15.998  54.747  12.651  0.00  0.00     0.017 A 
ENDBRANCH  22  24
ENDBRANCH   1  20
TORSDOF 5
ENDMDL
MODEL 7
REMARK VINA RESULT:    -9.484      3.792     11.807
REMARK INTER + INTRA:         -12.526
REMARK INTER:                 -11.794
REMARK INTRA:                  -0.732
REMARK UNBOUND:                -0.269
REMARK  5 active torsions:
REMARK  status: ('A' for Active; 'I' for Inactive)
REMARK    1  A    between atoms: C8_1  and  N1_20 
REMARK    2  A    between atoms: N2_4  and  C13_8 
REMARK    3  A    between atoms: C13_8  and  C14_9 
REMARK    4  A    between atoms: C14_9  and  C15_10 
REMARK       I    between atoms: N1_20  and  C7_21 
REMARK    5  A    between atoms: C7_21  and  C4_24 
ROOT
ATOM      1  C8  <0> d          15.876  50.931  16.246  0.00  0.00     0.087 C 
ATOM      2  C9  <0> d          17.037  50.034  16.686  0.00  0.00     0.053 C 
ATOM      3  C10 <0> d          16.604  49.207  17.899  0.00  0.00     0.237 C 
ATOM      4  N2  <0> d          15.449  48.374  17.541  0.00  0.00    -0.071 N 
ATOM      5  C11 <0> d          14.310  49.229  17.188  0.00  0.00     0.237 C 
ATOM      6  C12 <0> d          14.655  50.057  15.947  0.00  0.00     0.053 C 
ATOM      7  H26 <0> d          15.688  47.791  16.754  0.00  0.00     0.279 HD
ENDROOT
BRANCH   4   8
ATOM      8  C13 <0> d          15.087  47.525  18.684  0.00  0.00     0.239 C 
BRANCH   8   9
ATOM      9  C14 <0> d          15.906  47.941  19.908  0.00  0.00     0.068 C 
BRANCH   9  10
ATOM     10  C15 <0> d          16.600  46.732  20.481  0.00  0.00    -0.029 A 
ATOM     11  C18 <0> d          18.006  46.364  20.295  0.00  0.00    -0.002 A 
ATOM     12  C17 <0> d          18.194  45.170  21.016  0.00  0.00     0.042 A 
ATOM     13  C19 <0> d          19.074  46.935  19.602  0.00  0.00     0.014 A 
ATOM     14  C22 <0> d          19.450  44.574  21.029  0.00  0.00     0.030 A 
ATOM     15  N3  <0> d          16.983  44.844  21.583  0.00  0.00    -0.365 N 
ATOM     16  C21 <0> d          20.489  45.150  20.332  0.00  0.00     0.002 A 
ATOM     17  C20 <0> d          20.299  46.329  19.625  0.00  0.00     0.001 A 
ATOM     18  C16 <0> d          16.046  45.786  21.255  0.00  0.00     0.096 A 
ATOM     19  H1  <0> d          16.819  44.063  22.135  0.00  0.00     0.165 HD
ENDBRANCH   9  10
ENDBRANCH   8   9
ENDBRANCH   4   8
BRANCH   1  20
ATOM     20  N1  <0> d          16.258  51.669  15.040  0.00  0.00    -0.352 N 
ATOM     21  H7  <0> d          16.806  51.242  14.364  0.00  0.00     0.163 HD
ATOM     22  C7  <0> d          15.845  52.940  14.870  0.00  0.00     0.252 C 
ATOM     23  O1  <0> d          15.157  53.475  15.717  0.00  0.00    -0.268 OA
BRANCH  22  24
ATOM     24  C4  <0> d          16.230  53.686  13.652  0.00  0.00     0.032 A 
ATOM     25  C5  <0> d          17.224  53.185  12.809  0.00  0.00     0.017 A 
ATOM     26  C6  <0> d          17.579  53.886  11.675  0.00  0.00     0.001 A 
ATOM     27  C1  <0> d          16.952  55.081  11.371  0.00  0.00     0.000 A 
ATOM     28  C2  <0> d          15.966  55.583  12.203  0.00  0.00     0.001 A 
ATOM     29  C3  <0> d          15.602  54.892  13.340  0.00  0.00     0.017 A 
ENDBRANCH  22  24
ENDBRANCH   1  20
TORSDOF 5
ENDMDL
MODEL 8
REMARK VINA RESULT:    -8.827      3.374      6.183
REMARK INTER + INTRA:         -11.676
REMARK INTER:                 -11.305
REMARK INTRA:                  -0.371
REMARK UNBOUND:                -0.269
REMARK  5 active torsions:
REMARK  status: ('A' for Active; 'I' for Inactive)
REMARK    1  A    between atoms: C8_1  and  N1_20 
REMARK    2  A    between atoms: N2_4  and  C13_8 
REMARK    3  A    between atoms: C13_8  and  C14_9 
REMARK    4  A    between atoms: C14_9  and  C15_10 
REMARK       I    between atoms: N1_20  and  C7_21 
REMARK    5  A    between atoms: C7_21  and  C4_24 
ROOT
ATOM      1  C8  <0> d          16.356  48.921  18.427  0.00  0.00     0.087 C 
ATOM      2  C9  <0> d          14.891  48.898  17.981  0.00  0.00     0.053 C 
ATOM      3  C10 <0> d          14.557  50.214  17.276  0.00  0.00     0.237 C 
ATOM      4  N2  <0> d          15.424  50.379  16.103  0.00  0.00    -0.071 N 
ATOM      5  C11 <0> d          16.825  50.475  16.530  0.00  0.00     0.237 C 
ATOM      6  C12 <0> d          17.246  49.168  17.206  0.00  0.00     0.053 C 
ATOM      7  H26 <0> d          15.313  49.586  15.490  0.00  0.00     0.279 HD
ENDROOT
BRANCH   4   8
ATOM      8  C13 <0> d          15.048  51.605  15.386  0.00  0.00     0.239 C 
BRANCH   8   9
ATOM      9  C14 <0> d          16.266  52.155  14.641  0.00  0.00     0.068 C 
BRANCH   9  10
ATOM     10  C15 <0> d          15.896  53.447  13.960  0.00  0.00    -0.029 A 
ATOM     11  C18 <0> d          16.697  54.673  13.923  0.00  0.00    -0.002 A 
ATOM     12  C17 <0> d          15.951  55.603  13.174  0.00  0.00     0.042 A 
ATOM     13  C19 <0> d          17.940  55.036  14.443  0.00  0.00     0.014 A 
ATOM     14  C22 <0> d          16.466  56.877  12.961  0.00  0.00     0.030 A 
ATOM     15  N3  <0> d          14.783  54.978  12.800  0.00  0.00    -0.365 N 
ATOM     16  C21 <0> d          17.692  57.216  13.491  0.00  0.00     0.002 A 
ATOM     17  C20 <0> d          18.426  56.295  14.225  0.00  0.00     0.001 A 
ATOM     18  C16 <0> d          14.767  53.695  13.277  0.00  0.00     0.096 A 
ATOM     19  H1  <0> d          14.075  55.386  12.277  0.00  0.00     0.165 HD
ENDBRANCH   9  10
ENDBRANCH   8   9
ENDBRANCH   4   8
BRANCH   1  20
ATOM     20  N1  <0> d          16.703  47.634  19.034  0.00  0.00    -0.352 N 
ATOM     21  H7  <0> d          16.113  46.871  18.924  0.00  0.00     0.163 HD
ATOM     22  C7  <0> d          17.841  47.510  19.744  0.00  0.00     0.252 C 
ATOM     23  O1  <0> d          18.580  48.465  19.882  0.00  0.00    -0.268 OA
BRANCH  22  24
ATOM     24  C4  <0> d          18.192  46.210  20.358  0.00  0.00     0.032 A 
ATOM     25  C5  <0> d          19.493  45.715  20.256  0.00  0.00     0.017 A 
ATOM     26  C6  <0> d          19.813  44.503  20.831  0.00  0.00     0.001 A 
ATOM     27  C1  <0> d          18.848  43.778  21.508  0.00  0.00     0.000 A 
ATOM     28  C2  <0> d          17.556  44.263  21.613  0.00  0.00     0.001 A 
ATOM     29  C3  <0> d          17.223  45.475  21.042  0.00  0.00     0.017 A 
ENDBRANCH  22  24
ENDBRANCH   1  20
TORSDOF 5
ENDMDL
