MODEL 1
REMARK VINA RESULT:    -5.798      0.000      0.000
REMARK INTER + INTRA:          -6.485
REMARK INTER:                  -6.302
REMARK INTRA:                  -0.184
REMARK UNBOUND:                -0.178
REMARK  2 active torsions:
REMARK  status: ('A' for Active; 'I' for Inactive)
REMARK       I    between atoms: C2_2  and  N1_4 
REMARK    1  A    between atoms: C4_6  and  O4_12 
REMARK    2  A    between atoms: C6_8  and  C7_9 
ROOT
ATOM      1  C1  <0> d          15.565  58.925  12.804  0.00  0.00     0.117 C 
ATOM      2  C2  <0> d          16.623  57.918  13.176  0.00  0.00     0.216 C 
ATOM      3  O1  <0> d          17.292  58.082  14.174  0.00  0.00    -0.274 OA
ATOM      4  N1  <0> d          16.827  56.836  12.398  0.00  0.00    -0.335 N 
ATOM      5  C3  <0> d          16.093  56.518  11.159  0.00  0.00     0.158 C 
ATOM      6  C4  <0> d          17.052  55.608  10.353  0.00  0.00     0.138 C 
ATOM      7  C5  <0> d          17.706  54.768  11.482  0.00  0.00     0.070 C 
ATOM      8  C6  <0> d          17.820  55.781  12.641  0.00  0.00     0.190 C 
ENDROOT
BRANCH   8   9
ATOM      9  C7  <0> d          17.529  55.094  13.950  0.00  0.00     0.197 C 
ATOM     10  O2  <0> d          18.391  55.031  14.810  0.00  0.00    -0.646 OA
ATOM     11  O3  <0> d          16.430  54.603  14.150  0.00  0.00    -0.646 OA
ENDBRANCH   8   9
BRANCH   6  12
ATOM     12  O4  <0> d          16.326  54.772   9.449  0.00  0.00    -0.394 OA
ATOM     13  H10 <0> d          15.562  55.205   9.041  0.00  0.00     0.210 HD
ENDBRANCH   6  12
TORSDOF 2
ENDMDL
MODEL 2
REMARK VINA RESULT:    -5.640      1.579      3.442
REMARK INTER + INTRA:          -6.313
REMARK INTER:                  -6.139
REMARK INTRA:                  -0.174
REMARK UNBOUND:                -0.178
REMARK  2 active torsions:
REMARK  status: ('A' for Active; 'I' for Inactive)
REMARK       I    between atoms: C2_2  and  N1_4 
REMARK    1  A    between atoms: C4_6  and  O4_12 
REMARK    2  A    between atoms: C6_8  and  C7_9 
ROOT
ATOM      1  C1  <0> d          14.565  58.777  12.814  0.00  0.00     0.117 C 
ATOM      2  C2  <0> d          14.953  57.438  12.241  0.00  0.00     0.216 C 
ATOM      3  O1  <0> d          14.205  56.866  11.476  0.00  0.00    -0.274 OA
ATOM      4  N1  <0> d          16.131  56.876  12.578  0.00  0.00    -0.335 N 
ATOM      5  C3  <0> d          17.128  57.456  13.497  0.00  0.00     0.158 C 
ATOM      6  C4  <0> d          17.932  56.243  14.026  0.00  0.00     0.138 C 
ATOM      7  C5  <0> d          18.002  55.342  12.765  0.00  0.00     0.070 C 
ATOM      8  C6  <0> d          16.633  55.581  12.096  0.00  0.00     0.190 C 
ENDROOT
BRANCH   8   9
ATOM      9  C7  <0> d          16.796  55.621  10.598  0.00  0.00     0.197 C 
ATOM     10  O2  <0> d          17.428  56.524  10.078  0.00  0.00    -0.646 OA
ATOM     11  O3  <0> d          16.297  54.748   9.907  0.00  0.00    -0.646 OA
ENDBRANCH   8   9
BRANCH   6  12
ATOM     12  O4  <0> d          19.240  56.639  14.446  0.00  0.00    -0.394 OA
ATOM     13  H10 <0> d          19.247  57.202  15.233  0.00  0.00     0.210 HD
ENDBRANCH   6  12
TORSDOF 2
ENDMDL
MODEL 3
REMARK VINA RESULT:    -5.185      2.146      3.412
REMARK INTER + INTRA:          -5.818
REMARK INTER:                  -5.639
REMARK INTRA:                  -0.178
REMARK UNBOUND:                -0.178
REMARK  2 active torsions:
REMARK  status: ('A' for Active; 'I' for Inactive)
REMARK       I    between atoms: C2_2  and  N1_4 
REMARK    1  A    between atoms: C4_6  and  O4_12 
REMARK    2  A    between atoms: C6_8  and  C7_9 
ROOT
ATOM      1  C1  <0> d          15.457  57.474  12.067  0.00  0.00     0.117 C 
ATOM      2  C2  <0> d          15.645  56.108  12.675  0.00  0.00     0.216 C 
ATOM      3  O1  <0> d          14.787  55.261  12.540  0.00  0.00    -0.274 OA
ATOM      4  N1  <0> d          16.767  55.826  13.368  0.00  0.00    -0.335 N 
ATOM      5  C3  <0> d          17.882  56.759  13.612  0.00  0.00     0.158 C 
ATOM      6  C4  <0> d          18.568  56.229  14.896  0.00  0.00     0.138 C 
ATOM      7  C5  <0> d          18.449  54.695  14.701  0.00  0.00     0.070 C 
ATOM      8  C6  <0> d          17.078  54.541  14.010  0.00  0.00     0.190 C 
ENDROOT
BRANCH   8   9
ATOM      9  C7  <0> d          17.149  53.453  12.970  0.00  0.00     0.197 C 
ATOM     10  O2  <0> d          17.959  53.530  12.062  0.00  0.00    -0.646 OA
ATOM     11  O3  <0> d          16.397  52.495  13.038  0.00  0.00    -0.646 OA
ENDBRANCH   8   9
BRANCH   6  12
ATOM     12  O4  <0> d          19.937  56.634  14.949  0.00  0.00    -0.394 OA
ATOM     13  H10 <0> d          20.517  56.001  15.396  0.00  0.00     0.210 HD
ENDBRANCH   6  12
TORSDOF 2
ENDMDL
MODEL 4
REMARK VINA RESULT:    -5.179      2.068      3.689
REMARK INTER + INTRA:          -5.812
REMARK INTER:                  -5.643
REMARK INTRA:                  -0.169
REMARK UNBOUND:                -0.178
REMARK  2 active torsions:
REMARK  status: ('A' for Active; 'I' for Inactive)
REMARK       I    between atoms: C2_2  and  N1_4 
REMARK    1  A    between atoms: C4_6  and  O4_12 
REMARK    2  A    between atoms: C6_8  and  C7_9 
ROOT
ATOM      1  C1  <0> d          18.939  56.894  14.672  0.00  0.00     0.117 C 
ATOM      2  C2  <0> d          17.785  56.567  13.759  0.00  0.00     0.216 C 
ATOM      3  O1  <0> d          17.373  57.401  12.980  0.00  0.00    -0.274 OA
ATOM      4  N1  <0> d          17.210  55.349  13.809  0.00  0.00    -0.335 N 
ATOM      5  C3  <0> d          17.604  54.249  14.708  0.00  0.00     0.158 C 
ATOM      6  C4  <0> d          16.336  53.369  14.837  0.00  0.00     0.138 C 
ATOM      7  C5  <0> d          15.752  53.452  13.402  0.00  0.00     0.070 C 
ATOM      8  C6  <0> d          16.082  54.899  12.980  0.00  0.00     0.190 C 
ENDROOT
BRANCH   8   9
ATOM      9  C7  <0> d          16.471  54.931  11.524  0.00  0.00     0.197 C 
ATOM     10  O2  <0> d          17.379  54.224  11.121  0.00  0.00    -0.646 OA
ATOM     11  O3  <0> d          15.877  55.662  10.750  0.00  0.00    -0.646 OA
ENDBRANCH   8   9
BRANCH   6  12
ATOM     12  O4  <0> d          16.679  52.023  15.173  0.00  0.00    -0.394 OA
ATOM     13  H10 <0> d          17.485  51.943  15.702  0.00  0.00     0.210 HD
ENDBRANCH   6  12
TORSDOF 2
ENDMDL
MODEL 5
REMARK VINA RESULT:    -5.112      2.479      3.695
REMARK INTER + INTRA:          -5.739
REMARK INTER:                  -5.583
REMARK INTRA:                  -0.156
REMARK UNBOUND:                -0.178
REMARK  2 active torsions:
REMARK  status: ('A' for Active; 'I' for Inactive)
REMARK       I    between atoms: C2_2  and  N1_4 
REMARK    1  A    between atoms: C4_6  and  O4_12 
REMARK    2  A    between atoms: C6_8  and  C7_9 
ROOT
ATOM      1  C1  <0> d          15.302  53.139  14.967  0.00  0.00     0.117 C 
ATOM      2  C2  <0> d          16.095  54.301  14.425  0.00  0.00     0.216 C 
ATOM      3  O1  <0> d          17.248  54.460  14.765  0.00  0.00    -0.274 OA
ATOM      4  N1  <0> d          15.521  55.164  13.563  0.00  0.00    -0.335 N 
ATOM      5  C3  <0> d          14.133  55.094  13.072  0.00  0.00     0.158 C 
ATOM      6  C4  <0> d          13.783  56.546  12.662  0.00  0.00     0.138 C 
ATOM      7  C5  <0> d          15.129  57.033  12.065  0.00  0.00     0.070 C 
ATOM      8  C6  <0> d          16.175  56.335  12.960  0.00  0.00     0.190 C 
ENDROOT
BRANCH   8   9
ATOM      9  C7  <0> d          17.349  55.893  12.126  0.00  0.00     0.197 C 
ATOM     10  O2  <0> d          17.167  55.211  11.132  0.00  0.00    -0.646 OA
ATOM     11  O3  <0> d          18.480  56.220  12.444  0.00  0.00    -0.646 OA
ENDBRANCH   8   9
BRANCH   6  12
ATOM     12  O4  <0> d          12.749  56.564  11.676  0.00  0.00    -0.394 OA
ATOM     13  H10 <0> d          12.146  57.317  11.753  0.00  0.00     0.210 HD
ENDBRANCH   6  12
TORSDOF 2
ENDMDL
MODEL 6
REMARK VINA RESULT:    -5.059      2.405      3.111
REMARK INTER + INTRA:          -5.680
REMARK INTER:                  -5.509
REMARK INTRA:                  -0.172
REMARK UNBOUND:                -0.178
REMARK  2 active torsions:
REMARK  status: ('A' for Active; 'I' for Inactive)
REMARK       I    between atoms: C2_2  and  N1_4 
REMARK    1  A    between atoms: C4_6  and  O4_12 
REMARK    2  A    between atoms: C6_8  and  C7_9 
ROOT
ATOM      1  C1  <0> d          18.899  56.619  14.596  0.00  0.00     0.117 C 
ATOM      2  C2  <0> d          18.227  55.285  14.395  0.00  0.00     0.216 C 
ATOM      3  O1  <0> d          18.766  54.270  14.780  0.00  0.00    -0.274 OA
ATOM      4  N1  <0> d          17.025  55.221  13.787  0.00  0.00    -0.335 N 
ATOM      5  C3  <0> d          16.263  56.371  13.267  0.00  0.00     0.158 C 
ATOM      6  C4  <0> d          15.345  55.775  12.171  0.00  0.00     0.138 C 
ATOM      7  C5  <0> d          14.967  54.405  12.793  0.00  0.00     0.070 C 
ATOM      8  C6  <0> d          16.260  53.993  13.528  0.00  0.00     0.190 C 
ENDROOT
BRANCH   8   9
ATOM      9  C7  <0> d          15.915  53.319  14.830  0.00  0.00     0.197 C 
ATOM     10  O2  <0> d          16.333  52.198  15.066  0.00  0.00    -0.646 OA
ATOM     11  O3  <0> d          15.220  53.896  15.650  0.00  0.00    -0.646 OA
ENDBRANCH   8   9
BRANCH   6  12
ATOM     12  O4  <0> d          14.185  56.587  11.978  0.00  0.00    -0.394 OA
ATOM     13  H10 <0> d          13.383  56.231  12.387  0.00  0.00     0.210 HD
ENDBRANCH   6  12
TORSDOF 2
ENDMDL
MODEL 7
REMARK VINA RESULT:    -5.020      1.969      3.767
REMARK INTER + INTRA:          -5.639
REMARK INTER:                  -5.626
REMARK INTRA:                  -0.013
REMARK UNBOUND:                -0.178
REMARK  2 active torsions:
REMARK  status: ('A' for Active; 'I' for Inactive)
REMARK       I    between atoms: C2_2  and  N1_4 
REMARK    1  A    between atoms: C4_6  and  O4_12 
REMARK    2  A    between atoms: C6_8  and  C7_9 
ROOT
ATOM      1  C1  <0> d          18.882  57.085  14.647  0.00  0.00     0.117 C 
ATOM      2  C2  <0> d          17.947  56.611  13.565  0.00  0.00     0.216 C 
ATOM      3  O1  <0> d          18.148  55.550  13.012  0.00  0.00    -0.274 OA
ATOM      4  N1  <0> d          16.888  57.365  13.210  0.00  0.00    -0.335 N 
ATOM      5  C3  <0> d          16.531  58.672  13.793  0.00  0.00     0.158 C 
ATOM      6  C4  <0> d          15.694  59.379  12.697  0.00  0.00     0.138 C 
ATOM      7  C5  <0> d          14.892  58.191  12.104  0.00  0.00     0.070 C 
ATOM      8  C6  <0> d          15.900  57.025  12.176  0.00  0.00     0.190 C 
ENDROOT
BRANCH   8   9
ATOM      9  C7  <0> d          15.185  55.753  12.549  0.00  0.00     0.197 C 
ATOM     10  O2  <0> d          14.306  55.773  13.394  0.00  0.00    -0.646 OA
ATOM     11  O3  <0> d          15.485  54.703  12.006  0.00  0.00    -0.646 OA
ENDBRANCH   8   9
BRANCH   6  12
ATOM     12  O4  <0> d          14.819  60.353  13.270  0.00  0.00    -0.394 OA
ATOM     13  H10 <0> d          14.102  59.975  13.797  0.00  0.00     0.210 HD
ENDBRANCH   6  12
TORSDOF 2
ENDMDL
MODEL 8
REMARK VINA RESULT:    -4.917      2.355      3.604
REMARK INTER + INTRA:          -5.526
REMARK INTER:                  -5.491
REMARK INTRA:                  -0.035
REMARK UNBOUND:                -0.178
REMARK  2 active torsions:
REMARK  status: ('A' for Active; 'I' for Inactive)
REMARK       I    between atoms: C2_2  and  N1_4 
REMARK    1  A    between atoms: C4_6  and  O4_12 
REMARK    2  A    between atoms: C6_8  and  C7_9 
ROOT
ATOM      1  C1  <0> d          13.400  56.285  12.788  0.00  0.00     0.117 C 
ATOM      2  C2  <0> d          14.822  55.887  12.488  0.00  0.00     0.216 C 
ATOM      3  O1  <0> d          15.407  56.387  11.551  0.00  0.00    -0.274 OA
ATOM      4  N1  <0> d          15.444  54.975  13.262  0.00  0.00    -0.335 N 
ATOM      5  C3  <0> d          14.852  54.287  14.424  0.00  0.00     0.158 C 
ATOM      6  C4  <0> d          15.660  52.974  14.562  0.00  0.00     0.138 C 
ATOM      7  C5  <0> d          17.088  53.447  14.183  0.00  0.00     0.070 C 
ATOM      8  C6  <0> d          16.823  54.497  13.084  0.00  0.00     0.190 C 
ENDROOT
BRANCH   8   9
ATOM      9  C7  <0> d          17.786  55.646  13.231  0.00  0.00     0.197 C 
ATOM     10  O2  <0> d          18.309  56.132  12.244  0.00  0.00    -0.646 OA
ATOM     11  O3  <0> d          18.041  56.089  14.338  0.00  0.00    -0.646 OA
ENDBRANCH   8   9
BRANCH   6  12
ATOM     12  O4  <0> d          15.622  52.487  15.905  0.00  0.00    -0.394 OA
ATOM     13  H10 <0> d          15.633  51.522  15.974  0.00  0.00     0.210 HD
ENDBRANCH   6  12
TORSDOF 2
ENDMDL
MODEL 9
REMARK VINA RESULT:    -4.759      7.649      9.463
REMARK INTER + INTRA:          -5.354
REMARK INTER:                  -5.176
REMARK INTRA:                  -0.178
REMARK UNBOUND:                -0.178
REMARK  2 active torsions:
REMARK  status: ('A' for Active; 'I' for Inactive)
REMARK       I    between atoms: C2_2  and  N1_4 
REMARK    1  A    between atoms: C4_6  and  O4_12 
REMARK    2  A    between atoms: C6_8  and  C7_9 
ROOT
ATOM      1  C1  <0> d          17.976  47.903  18.115  0.00  0.00     0.117 C 
ATOM      2  C2  <0> d          16.469  47.882  18.081  0.00  0.00     0.216 C 
ATOM      3  O1  <0> d          15.868  46.901  18.466  0.00  0.00    -0.274 OA
ATOM      4  N1  <0> d          15.790  48.952  17.623  0.00  0.00    -0.335 N 
ATOM      5  C3  <0> d          16.392  50.202  17.122  0.00  0.00     0.158 C 
ATOM      6  C4  <0> d          15.321  50.808  16.182  0.00  0.00     0.138 C 
ATOM      7  C5  <0> d          14.010  50.450  16.931  0.00  0.00     0.070 C 
ATOM      8  C6  <0> d          14.327  49.066  17.535  0.00  0.00     0.190 C 
ENDROOT
BRANCH   8   9
ATOM      9  C7  <0> d          13.721  48.957  18.910  0.00  0.00     0.197 C 
ATOM     10  O2  <0> d          14.026  49.760  19.775  0.00  0.00    -0.646 OA
ATOM     11  O3  <0> d          12.925  48.067  19.156  0.00  0.00    -0.646 OA
ENDBRANCH   8   9
BRANCH   6  12
ATOM     12  O4  <0> d          15.478  52.224  16.073  0.00  0.00    -0.394 OA
ATOM     13  H10 <0> d          14.920  52.631  15.395  0.00  0.00     0.210 HD
ENDBRANCH   6  12
TORSDOF 2
ENDMDL
