MODEL 1
REMARK VINA RESULT:    -5.854      0.000      0.000
REMARK INTER + INTRA:          -7.350
REMARK INTER:                  -7.330
REMARK INTRA:                  -0.020
REMARK UNBOUND:                -0.127
REMARK  4 active torsions:
REMARK  status: ('A' for Active; 'I' for Inactive)
REMARK    1  A    between atoms: C2_1  and  O1_15 
REMARK    2  A    between atoms: C4_3  and  C10_7 
REMARK    3  A    between atoms: C6_5  and  O3_17 
REMARK    4  A    between atoms: C7_6  and  O2_19 
REMARK       I    between atoms: C10_7  and  N1_9 
ROOT
ATOM      1  C2  <0> d          14.965  47.443  19.310  0.00  0.00     0.105 A 
ATOM      2  C3  <0> d          16.304  47.113  19.388  0.00  0.00     0.057 A 
ATOM      3  C4  <0> d          17.259  47.917  18.761  0.00  0.00     0.037 A 
ATOM      4  C5  <0> d          16.858  49.055  18.057  0.00  0.00     0.057 A 
ATOM      5  C6  <0> d          15.516  49.381  17.981  0.00  0.00     0.105 A 
ATOM      6  C7  <0> d          14.566  48.575  18.603  0.00  0.00     0.135 A 
ENDROOT
BRANCH   3   7
ATOM      7  C10 <0> d          18.691  47.566  18.844  0.00  0.00     0.254 C 
ATOM      8  O4  <0> d          19.286  47.205  17.847  0.00  0.00    -0.267 OA
ATOM      9  N1  <0> d          19.337  47.646  20.024  0.00  0.00    -0.344 N 
ATOM     10  C14 <0> d          20.790  47.425  20.108  0.00  0.00     0.152 C 
ATOM     11  C11 <0> d          18.612  47.951  21.267  0.00  0.00     0.152 C 
ATOM     12  C13 <0> d          21.064  46.407  21.216  0.00  0.00     0.187 C 
ATOM     13  O5  <0> d          20.415  46.830  22.417  0.00  0.00    -0.388 OA
ATOM     14  C12 <0> d          18.992  46.903  22.319  0.00  0.00     0.187 C 
ENDBRANCH   3   7
BRANCH   5  15
ATOM     15  O3  <0> d          15.124  50.488  17.296  0.00  0.00    -0.353 OA
ATOM     16  C9  <0> d          15.961  50.915  16.219  0.00  0.00     0.210 C 
ENDBRANCH   5  15
BRANCH   1  17
ATOM     17  O1  <0> d          14.035  46.661  19.919  0.00  0.00    -0.353 OA
ATOM     18  C1  <0> d          14.446  45.349  20.309  0.00  0.00     0.210 C 
ENDBRANCH   1  17
BRANCH   6  19
ATOM     19  O2  <0> d          13.248  48.895  18.522  0.00  0.00    -0.351 OA
ATOM     20  C8  <0> d          12.739  49.796  19.508  0.00  0.00     0.210 C 
ENDBRANCH   6  19
TORSDOF 4
ENDMDL
MODEL 2
REMARK VINA RESULT:    -5.848      0.038      2.905
REMARK INTER + INTRA:          -7.343
REMARK INTER:                  -7.319
REMARK INTRA:                  -0.023
REMARK UNBOUND:                -0.127
REMARK  4 active torsions:
REMARK  status: ('A' for Active; 'I' for Inactive)
REMARK    1  A    between atoms: C2_1  and  O1_15 
REMARK    2  A    between atoms: C4_3  and  C10_7 
REMARK    3  A    between atoms: C6_5  and  O3_17 
REMARK    4  A    between atoms: C7_6  and  O2_19 
REMARK       I    between atoms: C10_7  and  N1_9 
ROOT
ATOM      1  C2  <0> d          15.521  49.360  17.989  0.00  0.00     0.105 A 
ATOM      2  C3  <0> d          16.859  49.025  18.058  0.00  0.00     0.057 A 
ATOM      3  C4  <0> d          17.257  47.885  18.762  0.00  0.00     0.037 A 
ATOM      4  C5  <0> d          16.300  47.088  19.395  0.00  0.00     0.057 A 
ATOM      5  C6  <0> d          14.962  47.429  19.323  0.00  0.00     0.105 A 
ATOM      6  C7  <0> d          14.568  48.567  18.624  0.00  0.00     0.135 A 
ENDROOT
BRANCH   3   7
ATOM      7  C10 <0> d          18.687  47.524  18.837  0.00  0.00     0.254 C 
ATOM      8  O4  <0> d          19.274  47.157  17.838  0.00  0.00    -0.267 OA
ATOM      9  N1  <0> d          19.340  47.602  20.013  0.00  0.00    -0.344 N 
ATOM     10  C14 <0> d          20.791  47.371  20.090  0.00  0.00     0.152 C 
ATOM     11  C11 <0> d          18.623  47.915  21.260  0.00  0.00     0.152 C 
ATOM     12  C13 <0> d          21.065  46.354  21.198  0.00  0.00     0.187 C 
ATOM     13  O5  <0> d          20.426  46.784  22.403  0.00  0.00    -0.388 OA
ATOM     14  C12 <0> d          19.002  46.866  22.312  0.00  0.00     0.187 C 
ENDBRANCH   3   7
BRANCH   5  15
ATOM     15  O3  <0> d          14.029  46.653  19.938  0.00  0.00    -0.353 OA
ATOM     16  C9  <0> d          14.430  45.334  20.317  0.00  0.00     0.210 C 
ENDBRANCH   5  15
BRANCH   1  17
ATOM     17  O1  <0> d          15.132  50.469  17.304  0.00  0.00    -0.353 OA
ATOM     18  C1  <0> d          15.956  50.877  16.210  0.00  0.00     0.210 C 
ENDBRANCH   1  17
BRANCH   6  19
ATOM     19  O2  <0> d          13.253  48.902  18.559  0.00  0.00    -0.351 OA
ATOM     20  C8  <0> d          12.769  49.816  19.546  0.00  0.00     0.210 C 
ENDBRANCH   6  19
TORSDOF 4
ENDMDL
MODEL 3
REMARK VINA RESULT:    -5.733      7.931     12.334
REMARK INTER + INTRA:          -7.201
REMARK INTER:                  -8.031
REMARK INTRA:                   0.830
REMARK UNBOUND:                -0.127
REMARK  4 active torsions:
REMARK  status: ('A' for Active; 'I' for Inactive)
REMARK    1  A    between atoms: C2_1  and  O1_15 
REMARK    2  A    between atoms: C4_3  and  C10_7 
REMARK    3  A    between atoms: C6_5  and  O3_17 
REMARK    4  A    between atoms: C7_6  and  O2_19 
REMARK       I    between atoms: C10_7  and  N1_9 
ROOT
ATOM      1  C2  <0> d          17.173  55.875  12.994  0.00  0.00     0.105 A 
ATOM      2  C3  <0> d          16.136  56.735  12.689  0.00  0.00     0.057 A 
ATOM      3  C4  <0> d          14.822  56.263  12.666  0.00  0.00     0.037 A 
ATOM      4  C5  <0> d          14.559  54.921  12.952  0.00  0.00     0.057 A 
ATOM      5  C6  <0> d          15.600  54.064  13.257  0.00  0.00     0.105 A 
ATOM      6  C7  <0> d          16.910  54.537  13.275  0.00  0.00     0.135 A 
ENDROOT
BRANCH   3   7
ATOM      7  C10 <0> d          13.712  57.180  12.340  0.00  0.00     0.254 C 
ATOM      8  O4  <0> d          12.784  56.792  11.656  0.00  0.00    -0.267 OA
ATOM      9  N1  <0> d          13.727  58.446  12.801  0.00  0.00    -0.344 N 
ATOM     10  C14 <0> d          12.576  59.340  12.597  0.00  0.00     0.152 C 
ATOM     11  C11 <0> d          14.897  58.979  13.516  0.00  0.00     0.152 C 
ATOM     12  C13 <0> d          13.079  60.657  12.005  0.00  0.00     0.187 C 
ATOM     13  O5  <0> d          14.142  61.164  12.817  0.00  0.00    -0.388 OA
ATOM     14  C12 <0> d          15.290  60.315  12.876  0.00  0.00     0.187 C 
ENDBRANCH   3   7
BRANCH   5  15
ATOM     15  O3  <0> d          15.346  52.758  13.536  0.00  0.00    -0.353 OA
ATOM     16  C9  <0> d          15.452  52.354  14.903  0.00  0.00     0.210 C 
ENDBRANCH   5  15
BRANCH   1  17
ATOM     17  O1  <0> d          18.453  56.334  13.017  0.00  0.00    -0.353 OA
ATOM     18  C1  <0> d          18.980  56.723  14.287  0.00  0.00     0.210 C 
ENDBRANCH   1  17
BRANCH   6  19
ATOM     19  O2  <0> d          17.932  53.691  13.570  0.00  0.00    -0.351 OA
ATOM     20  C8  <0> d          18.479  52.934  12.487  0.00  0.00     0.210 C 
ENDBRANCH   6  19
TORSDOF 4
ENDMDL
MODEL 4
REMARK VINA RESULT:    -5.685      7.900     12.062
REMARK INTER + INTRA:          -7.141
REMARK INTER:                  -7.992
REMARK INTRA:                   0.850
REMARK UNBOUND:                -0.127
REMARK  4 active torsions:
REMARK  status: ('A' for Active; 'I' for Inactive)
REMARK    1  A    between atoms: C2_1  and  O1_15 
REMARK    2  A    between atoms: C4_3  and  C10_7 
REMARK    3  A    between atoms: C6_5  and  O3_17 
REMARK    4  A    between atoms: C7_6  and  O2_19 
REMARK       I    between atoms: C10_7  and  N1_9 
ROOT
ATOM      1  C2  <0> d          15.626  54.032  13.266  0.00  0.00     0.105 A 
ATOM      2  C3  <0> d          14.582  54.881  12.952  0.00  0.00     0.057 A 
ATOM      3  C4  <0> d          14.837  56.226  12.670  0.00  0.00     0.037 A 
ATOM      4  C5  <0> d          16.147  56.708  12.705  0.00  0.00     0.057 A 
ATOM      5  C6  <0> d          17.188  55.855  13.020  0.00  0.00     0.105 A 
ATOM      6  C7  <0> d          16.932  54.517  13.305  0.00  0.00     0.135 A 
ENDROOT
BRANCH   3   7
ATOM      7  C10 <0> d          13.723  57.134  12.334  0.00  0.00     0.254 C 
ATOM      8  O4  <0> d          12.805  56.740  11.642  0.00  0.00    -0.267 OA
ATOM      9  N1  <0> d          13.724  58.401  12.795  0.00  0.00    -0.344 N 
ATOM     10  C14 <0> d          12.568  59.286  12.581  0.00  0.00     0.152 C 
ATOM     11  C11 <0> d          14.884  58.942  13.520  0.00  0.00     0.152 C 
ATOM     12  C13 <0> d          13.066  60.606  11.994  0.00  0.00     0.187 C 
ATOM     13  O5  <0> d          14.118  61.121  12.815  0.00  0.00    -0.388 OA
ATOM     14  C12 <0> d          15.272  60.282  12.884  0.00  0.00     0.187 C 
ENDBRANCH   3   7
BRANCH   5  15
ATOM     15  O3  <0> d          18.464  56.324  13.054  0.00  0.00    -0.353 OA
ATOM     16  C9  <0> d          18.969  56.739  14.326  0.00  0.00     0.210 C 
ENDBRANCH   5  15
BRANCH   1  17
ATOM     17  O1  <0> d          15.380  52.724  13.541  0.00  0.00    -0.353 OA
ATOM     18  C1  <0> d          15.489  52.317  14.907  0.00  0.00     0.210 C 
ENDBRANCH   1  17
BRANCH   6  19
ATOM     19  O2  <0> d          17.956  53.681  13.620  0.00  0.00    -0.351 OA
ATOM     20  C8  <0> d          18.536  52.936  12.547  0.00  0.00     0.210 C 
ENDBRANCH   6  19
TORSDOF 4
ENDMDL
MODEL 5
REMARK VINA RESULT:    -5.551      1.763      6.100
REMARK INTER + INTRA:          -6.976
REMARK INTER:                  -7.123
REMARK INTRA:                   0.147
REMARK UNBOUND:                -0.127
REMARK  4 active torsions:
REMARK  status: ('A' for Active; 'I' for Inactive)
REMARK    1  A    between atoms: C2_1  and  O1_15 
REMARK    2  A    between atoms: C4_3  and  C10_7 
REMARK    3  A    between atoms: C6_5  and  O3_17 
REMARK    4  A    between atoms: C7_6  and  O2_19 
REMARK       I    between atoms: C10_7  and  N1_9 
ROOT
ATOM      1  C2  <0> d          19.316  46.628  21.071  0.00  0.00     0.105 A 
ATOM      2  C3  <0> d          18.454  47.481  20.410  0.00  0.00     0.057 A 
ATOM      3  C4  <0> d          18.696  47.822  19.076  0.00  0.00     0.037 A 
ATOM      4  C5  <0> d          19.810  47.300  18.415  0.00  0.00     0.057 A 
ATOM      5  C6  <0> d          20.670  46.447  19.082  0.00  0.00     0.105 A 
ATOM      6  C7  <0> d          20.429  46.111  20.412  0.00  0.00     0.135 A 
ENDROOT
BRANCH   3   7
ATOM      7  C10 <0> d          17.776  48.734  18.368  0.00  0.00     0.254 C 
ATOM      8  O4  <0> d          18.189  49.785  17.919  0.00  0.00    -0.267 OA
ATOM      9  N1  <0> d          16.479  48.400  18.219  0.00  0.00    -0.344 N 
ATOM     10  C14 <0> d          15.572  49.229  17.409  0.00  0.00     0.152 C 
ATOM     11  C11 <0> d          15.926  47.200  18.866  0.00  0.00     0.152 C 
ATOM     12  C13 <0> d          14.319  49.528  18.232  0.00  0.00     0.187 C 
ATOM     13  O5  <0> d          13.781  48.303  18.736  0.00  0.00    -0.388 OA
ATOM     14  C12 <0> d          14.654  47.601  19.623  0.00  0.00     0.187 C 
ENDBRANCH   3   7
BRANCH   5  15
ATOM     15  O3  <0> d          21.755  45.937  18.439  0.00  0.00    -0.353 OA
ATOM     16  C9  <0> d          22.946  46.727  18.449  0.00  0.00     0.210 C 
ENDBRANCH   5  15
BRANCH   1  17
ATOM     17  O1  <0> d          19.081  46.295  22.368  0.00  0.00    -0.353 OA
ATOM     18  C1  <0> d          19.651  47.143  23.368  0.00  0.00     0.210 C 
ENDBRANCH   1  17
BRANCH   6  19
ATOM     19  O2  <0> d          21.279  45.277  21.066  0.00  0.00    -0.351 OA
ATOM     20  C8  <0> d          20.950  43.886  21.063  0.00  0.00     0.210 C 
ENDBRANCH   6  19
TORSDOF 4
ENDMDL
MODEL 6
REMARK VINA RESULT:    -5.492      2.424      5.962
REMARK INTER + INTRA:          -6.903
REMARK INTER:                  -6.589
REMARK INTRA:                  -0.314
REMARK UNBOUND:                -0.127
REMARK  4 active torsions:
REMARK  status: ('A' for Active; 'I' for Inactive)
REMARK    1  A    between atoms: C2_1  and  O1_15 
REMARK    2  A    between atoms: C4_3  and  C10_7 
REMARK    3  A    between atoms: C6_5  and  O3_17 
REMARK    4  A    between atoms: C7_6  and  O2_19 
REMARK       I    between atoms: C10_7  and  N1_9 
ROOT
ATOM      1  C2  <0> d          21.170  46.845  19.114  0.00  0.00     0.105 A 
ATOM      2  C3  <0> d          19.840  46.802  18.743  0.00  0.00     0.057 A 
ATOM      3  C4  <0> d          19.106  47.986  18.637  0.00  0.00     0.037 A 
ATOM      4  C5  <0> d          19.720  49.212  18.906  0.00  0.00     0.057 A 
ATOM      5  C6  <0> d          21.051  49.250  19.277  0.00  0.00     0.105 A 
ATOM      6  C7  <0> d          21.779  48.068  19.387  0.00  0.00     0.135 A 
ENDROOT
BRANCH   3   7
ATOM      7  C10 <0> d          17.685  47.942  18.240  0.00  0.00     0.254 C 
ATOM      8  O4  <0> d          17.373  48.110  17.078  0.00  0.00    -0.267 OA
ATOM      9  N1  <0> d          16.734  47.715  19.168  0.00  0.00    -0.344 N 
ATOM     10  C14 <0> d          15.324  47.541  18.780  0.00  0.00     0.152 C 
ATOM     11  C11 <0> d          17.071  47.641  20.598  0.00  0.00     0.152 C 
ATOM     12  C13 <0> d          14.464  48.469  19.638  0.00  0.00     0.187 C 
ATOM     13  O5  <0> d          14.774  48.260  21.018  0.00  0.00    -0.388 OA
ATOM     14  C12 <0> d          16.125  48.569  21.368  0.00  0.00     0.187 C 
ENDBRANCH   3   7
BRANCH   5  15
ATOM     15  O3  <0> d          21.649  50.443  19.539  0.00  0.00    -0.353 OA
ATOM     16  C9  <0> d          21.409  51.506  18.614  0.00  0.00     0.210 C 
ENDBRANCH   5  15
BRANCH   1  17
ATOM     17  O1  <0> d          21.885  45.694  19.219  0.00  0.00    -0.353 OA
ATOM     18  C1  <0> d          21.545  44.814  20.293  0.00  0.00     0.210 C 
ENDBRANCH   1  17
BRANCH   6  19
ATOM     19  O2  <0> d          23.086  48.108  19.757  0.00  0.00    -0.351 OA
ATOM     20  C8  <0> d          23.363  48.077  21.159  0.00  0.00     0.210 C 
ENDBRANCH   6  19
TORSDOF 4
ENDMDL
MODEL 7
REMARK VINA RESULT:    -5.458      2.968      5.011
REMARK INTER + INTRA:          -6.861
REMARK INTER:                  -6.580
REMARK INTRA:                  -0.281
REMARK UNBOUND:                -0.127
REMARK  4 active torsions:
REMARK  status: ('A' for Active; 'I' for Inactive)
REMARK    1  A    between atoms: C2_1  and  O1_15 
REMARK    2  A    between atoms: C4_3  and  C10_7 
REMARK    3  A    between atoms: C6_5  and  O3_17 
REMARK    4  A    between atoms: C7_6  and  O2_19 
REMARK       I    between atoms: C10_7  and  N1_9 
ROOT
ATOM      1  C2  <0> d          18.078  47.757  19.054  0.00  0.00     0.105 A 
ATOM      2  C3  <0> d          19.333  48.007  18.535  0.00  0.00     0.057 A 
ATOM      3  C4  <0> d          20.444  48.046  19.382  0.00  0.00     0.037 A 
ATOM      4  C5  <0> d          20.281  47.833  20.753  0.00  0.00     0.057 A 
ATOM      5  C6  <0> d          19.023  47.583  21.268  0.00  0.00     0.105 A 
ATOM      6  C7  <0> d          17.917  47.549  20.422  0.00  0.00     0.135 A 
ENDROOT
BRANCH   3   7
ATOM      7  C10 <0> d          21.786  48.313  18.829  0.00  0.00     0.254 C 
ATOM      8  O4  <0> d          22.560  47.394  18.643  0.00  0.00    -0.267 OA
ATOM      9  N1  <0> d          22.153  49.575  18.531  0.00  0.00    -0.344 N 
ATOM     10  C14 <0> d          23.435  49.853  17.863  0.00  0.00     0.152 C 
ATOM     11  C11 <0> d          21.289  50.716  18.869  0.00  0.00     0.152 C 
ATOM     12  C13 <0> d          24.171  50.937  18.650  0.00  0.00     0.187 C 
ATOM     13  O5  <0> d          23.300  52.054  18.844  0.00  0.00    -0.388 OA
ATOM     14  C12 <0> d          22.131  51.759  19.612  0.00  0.00     0.187 C 
ENDBRANCH   3   7
BRANCH   5  15
ATOM     15  O3  <0> d          18.863  47.375  22.602  0.00  0.00    -0.353 OA
ATOM     16  C9  <0> d          19.960  46.783  23.302  0.00  0.00     0.210 C 
ENDBRANCH   5  15
BRANCH   1  17
ATOM     17  O1  <0> d          16.996  47.718  18.231  0.00  0.00    -0.353 OA
ATOM     18  C1  <0> d          16.708  48.902  17.483  0.00  0.00     0.210 C 
ENDBRANCH   1  17
BRANCH   6  19
ATOM     19  O2  <0> d          16.680  47.309  20.931  0.00  0.00    -0.351 OA
ATOM     20  C8  <0> d          15.919  48.445  21.346  0.00  0.00     0.210 C 
ENDBRANCH   6  19
TORSDOF 4
ENDMDL
MODEL 8
REMARK VINA RESULT:    -5.433      1.985      2.355
REMARK INTER + INTRA:          -6.830
REMARK INTER:                  -6.703
REMARK INTRA:                  -0.127
REMARK UNBOUND:                -0.127
REMARK  4 active torsions:
REMARK  status: ('A' for Active; 'I' for Inactive)
REMARK    1  A    between atoms: C2_1  and  O1_15 
REMARK    2  A    between atoms: C4_3  and  C10_7 
REMARK    3  A    between atoms: C6_5  and  O3_17 
REMARK    4  A    between atoms: C7_6  and  O2_19 
REMARK       I    between atoms: C10_7  and  N1_9 
ROOT
ATOM      1  C2  <0> d          16.263  48.390  20.060  0.00  0.00     0.105 A 
ATOM      2  C3  <0> d          17.537  47.857  20.111  0.00  0.00     0.057 A 
ATOM      3  C4  <0> d          18.331  47.837  18.961  0.00  0.00     0.037 A 
ATOM      4  C5  <0> d          17.834  48.357  17.763  0.00  0.00     0.057 A 
ATOM      5  C6  <0> d          16.559  48.889  17.718  0.00  0.00     0.105 A 
ATOM      6  C7  <0> d          15.768  48.904  18.864  0.00  0.00     0.135 A 
ENDROOT
BRANCH   3   7
ATOM      7  C10 <0> d          19.692  47.268  19.012  0.00  0.00     0.254 C 
ATOM      8  O4  <0> d          19.845  46.075  19.186  0.00  0.00    -0.267 OA
ATOM      9  N1  <0> d          20.764  48.072  18.865  0.00  0.00    -0.344 N 
ATOM     10  C14 <0> d          22.123  47.514  18.786  0.00  0.00     0.152 C 
ATOM     11  C11 <0> d          20.611  49.533  18.787  0.00  0.00     0.152 C 
ATOM     12  C13 <0> d          23.014  48.254  19.784  0.00  0.00     0.187 C 
ATOM     13  O5  <0> d          22.892  49.662  19.573  0.00  0.00    -0.388 OA
ATOM     14  C12 <0> d          21.576  50.175  19.791  0.00  0.00     0.187 C 
ENDBRANCH   3   7
BRANCH   5  15
ATOM     15  O3  <0> d          16.075  49.396  16.553  0.00  0.00    -0.353 OA
ATOM     16  C9  <0> d          16.334  50.777  16.289  0.00  0.00     0.210 C 
ENDBRANCH   5  15
BRANCH   1  17
ATOM     17  O1  <0> d          15.490  48.410  21.178  0.00  0.00    -0.353 OA
ATOM     18  C1  <0> d          14.881  47.176  21.567  0.00  0.00     0.210 C 
ENDBRANCH   1  17
BRANCH   6  19
ATOM     19  O2  <0> d          14.513  49.423  18.816  0.00  0.00    -0.351 OA
ATOM     20  C8  <0> d          13.457  48.529  18.456  0.00  0.00     0.210 C 
ENDBRANCH   6  19
TORSDOF 4
ENDMDL
MODEL 9
REMARK VINA RESULT:    -5.420      3.116      4.771
REMARK INTER + INTRA:          -6.814
REMARK INTER:                  -6.518
REMARK INTRA:                  -0.296
REMARK UNBOUND:                -0.127
REMARK  4 active torsions:
REMARK  status: ('A' for Active; 'I' for Inactive)
REMARK    1  A    between atoms: C2_1  and  O1_15 
REMARK    2  A    between atoms: C4_3  and  C10_7 
REMARK    3  A    between atoms: C6_5  and  O3_17 
REMARK    4  A    between atoms: C7_6  and  O2_19 
REMARK       I    between atoms: C10_7  and  N1_9 
ROOT
ATOM      1  C2  <0> d          19.374  47.782  21.349  0.00  0.00     0.105 A 
ATOM      2  C3  <0> d          20.594  48.075  20.771  0.00  0.00     0.057 A 
ATOM      3  C4  <0> d          20.696  48.207  19.384  0.00  0.00     0.037 A 
ATOM      4  C5  <0> d          19.563  48.041  18.584  0.00  0.00     0.057 A 
ATOM      5  C6  <0> d          18.344  47.747  19.167  0.00  0.00     0.105 A 
ATOM      6  C7  <0> d          18.246  47.612  20.550  0.00  0.00     0.135 A 
ENDROOT
BRANCH   3   7
ATOM      7  C10 <0> d          21.999  48.521  18.764  0.00  0.00     0.254 C 
ATOM      8  O4  <0> d          22.796  47.630  18.543  0.00  0.00    -0.267 OA
ATOM      9  N1  <0> d          22.303  49.794  18.444  0.00  0.00    -0.344 N 
ATOM     10  C14 <0> d          23.539  50.116  17.712  0.00  0.00     0.152 C 
ATOM     11  C11 <0> d          21.415  50.904  18.821  0.00  0.00     0.152 C 
ATOM     12  C13 <0> d          24.272  51.230  18.459  0.00  0.00     0.187 C 
ATOM     13  O5  <0> d          23.371  52.315  18.693  0.00  0.00    -0.388 OA
ATOM     14  C12 <0> d          22.254  51.981  19.519  0.00  0.00     0.187 C 
ENDBRANCH   3   7
BRANCH   5  15
ATOM     15  O3  <0> d          17.240  47.586  18.389  0.00  0.00    -0.353 OA
ATOM     16  C9  <0> d          16.793  48.726  17.653  0.00  0.00     0.210 C 
ENDBRANCH   5  15
BRANCH   1  17
ATOM     17  O1  <0> d          19.274  47.654  22.699  0.00  0.00    -0.353 OA
ATOM     18  C1  <0> d          19.780  46.447  23.275  0.00  0.00     0.210 C 
ENDBRANCH   1  17
BRANCH   6  19
ATOM     19  O2  <0> d          17.048  47.318  21.119  0.00  0.00    -0.351 OA
ATOM     20  C8  <0> d          16.170  48.415  21.384  0.00  0.00     0.210 C 
ENDBRANCH   6  19
TORSDOF 4
ENDMDL
