MODEL 1
REMARK VINA RESULT:    -7.166      0.000      0.000
REMARK INTER + INTRA:          -8.186
REMARK INTER:                  -7.990
REMARK INTRA:                  -0.196
REMARK UNBOUND:                -0.182
REMARK  2 active torsions:
REMARK  status: ('A' for Active; 'I' for Inactive)
REMARK       I    between atoms: N2_1  and  C3_2 
REMARK    1  A    between atoms: N2_1  and  N1_12 
REMARK    2  A    between atoms: C3_2  and  C4_5 
REMARK       I    between atoms: N1_12  and  C2_13 
ROOT
ATOM      1  N2  <0> d          15.568  56.953  12.153  0.00  0.00    -0.262 N 
ATOM      2  C3  <0> d          14.232  57.096  12.267  0.00  0.00     0.286 C 
ATOM      3  O2  <0> d          13.518  56.114  12.326  0.00  0.00    -0.264 OA
ATOM      4  H5  <0> d          16.136  57.736  12.106  0.00  0.00     0.190 HD
ENDROOT
BRANCH   2   5
ATOM      5  C4  <0> d          13.634  58.451  12.322  0.00  0.00     0.102 A 
ATOM      6  C5  <0> d          14.181  59.414  13.167  0.00  0.00     0.035 A 
ATOM      7  C6  <0> d          13.610  60.676  13.209  0.00  0.00     0.004 A 
ATOM      8  C7  <0> d          12.511  60.931  12.404  0.00  0.00     0.017 A 
ATOM      9  C8  <0> d          12.016  59.924  11.592  0.00  0.00     0.088 A 
ATOM     10  N3  <0> d          12.581  58.736  11.567  0.00  0.00    -0.361 N 
ATOM     11  H3  <0> d          12.200  58.017  10.952  1.00  0.00     0.165 HD
ENDBRANCH   2   5
BRANCH   1  12
ATOM     12  N1  <0> d          16.133  55.672  12.101  0.00  0.00    -0.268 N 
ATOM     13  C2  <0> d          16.938  55.332  11.076  0.00  0.00     0.232 C 
ATOM     14  C1  <0> d          17.546  53.955  11.020  0.00  0.00     0.119 C 
ATOM     15  O1  <0> d          17.174  56.136  10.198  0.00  0.00    -0.272 OA
ATOM     16  H4  <0> d          15.944  55.030  12.803  0.00  0.00     0.190 HD
ENDBRANCH   1  12
TORSDOF 2
ENDMDL
MODEL 2
REMARK VINA RESULT:    -7.083      1.719      2.065
REMARK INTER + INTRA:          -8.092
REMARK INTER:                  -7.884
REMARK INTRA:                  -0.208
REMARK UNBOUND:                -0.182
REMARK  2 active torsions:
REMARK  status: ('A' for Active; 'I' for Inactive)
REMARK       I    between atoms: N2_1  and  C3_2 
REMARK    1  A    between atoms: N2_1  and  N1_12 
REMARK    2  A    between atoms: C3_2  and  C4_5 
REMARK       I    between atoms: N1_12  and  C2_13 
ROOT
ATOM      1  N2  <0> d          14.277  56.529  12.132  0.00  0.00    -0.262 N 
ATOM      2  C3  <0> d          14.681  57.770  12.472  0.00  0.00     0.286 C 
ATOM      3  O2  <0> d          15.829  57.960  12.823  0.00  0.00    -0.264 OA
ATOM      4  H5  <0> d          13.362  56.378  11.852  0.00  0.00     0.190 HD
ENDROOT
BRANCH   2   5
ATOM      5  C4  <0> d          13.727  58.901  12.415  0.00  0.00     0.102 A 
ATOM      6  C5  <0> d          13.921  60.011  13.235  0.00  0.00     0.035 A 
ATOM      7  C6  <0> d          13.019  61.061  13.170  0.00  0.00     0.004 A 
ATOM      8  C7  <0> d          11.954  60.965  12.289  0.00  0.00     0.017 A 
ATOM      9  C8  <0> d          11.819  59.829  11.507  0.00  0.00     0.088 A 
ATOM     10  N3  <0> d          12.694  58.849  11.584  0.00  0.00    -0.361 N 
ATOM     11  H3  <0> d          12.574  58.029  10.989  1.00  0.00     0.165 HD
ENDBRANCH   2   5
BRANCH   1  12
ATOM     12  N1  <0> d          15.180  55.459  12.186  0.00  0.00    -0.268 N 
ATOM     13  C2  <0> d          15.078  54.540  13.165  0.00  0.00     0.232 C 
ATOM     14  C1  <0> d          16.048  53.389  13.223  0.00  0.00     0.119 C 
ATOM     15  O1  <0> d          14.203  54.638  14.000  0.00  0.00    -0.272 OA
ATOM     16  H4  <0> d          15.879  55.380  11.518  0.00  0.00     0.190 HD
ENDBRANCH   1  12
TORSDOF 2
ENDMDL
MODEL 3
REMARK VINA RESULT:    -6.769      1.966      5.516
REMARK INTER + INTRA:          -7.742
REMARK INTER:                  -7.556
REMARK INTRA:                  -0.186
REMARK UNBOUND:                -0.182
REMARK  2 active torsions:
REMARK  status: ('A' for Active; 'I' for Inactive)
REMARK       I    between atoms: N2_1  and  C3_2 
REMARK    1  A    between atoms: N2_1  and  N1_12 
REMARK    2  A    between atoms: C3_2  and  C4_5 
REMARK       I    between atoms: N1_12  and  C2_13 
ROOT
ATOM      1  N2  <0> d          13.853  58.609  12.173  0.00  0.00    -0.262 N 
ATOM      2  C3  <0> d          13.899  57.264  12.089  0.00  0.00     0.286 C 
ATOM      3  O2  <0> d          12.909  56.641  11.759  0.00  0.00    -0.264 OA
ATOM      4  H5  <0> d          14.642  59.105  12.436  0.00  0.00     0.190 HD
ENDROOT
BRANCH   2   5
ATOM      5  C4  <0> d          15.158  56.546  12.398  0.00  0.00     0.102 A 
ATOM      6  C5  <0> d          16.280  57.262  12.808  0.00  0.00     0.035 A 
ATOM      7  C6  <0> d          17.450  56.576  13.092  0.00  0.00     0.004 A 
ATOM      8  C7  <0> d          17.457  55.196  12.956  0.00  0.00     0.017 A 
ATOM      9  C8  <0> d          16.306  54.549  12.538  0.00  0.00     0.088 A 
ATOM     10  N3  <0> d          15.207  55.225  12.281  0.00  0.00    -0.361 N 
ATOM     11  H3  <0> d          14.371  54.720  11.984  1.00  0.00     0.165 HD
ENDBRANCH   2   5
BRANCH   1  12
ATOM     12  N1  <0> d          12.663  59.288  11.880  0.00  0.00    -0.268 N 
ATOM     13  C2  <0> d          12.448  60.518  12.385  0.00  0.00     0.232 C 
ATOM     14  C1  <0> d          11.168  61.249  12.070  0.00  0.00     0.119 C 
ATOM     15  O1  <0> d          13.285  61.038  13.092  0.00  0.00    -0.272 OA
ATOM     16  H4  <0> d          11.994  58.872  11.314  0.00  0.00     0.190 HD
ENDBRANCH   1  12
TORSDOF 2
ENDMDL
MODEL 4
REMARK VINA RESULT:    -6.754      1.804      1.998
REMARK INTER + INTRA:          -7.726
REMARK INTER:                  -7.583
REMARK INTRA:                  -0.143
REMARK UNBOUND:                -0.182
REMARK  2 active torsions:
REMARK  status: ('A' for Active; 'I' for Inactive)
REMARK       I    between atoms: N2_1  and  C3_2 
REMARK    1  A    between atoms: N2_1  and  N1_12 
REMARK    2  A    between atoms: C3_2  and  C4_5 
REMARK       I    between atoms: N1_12  and  C2_13 
ROOT
ATOM      1  N2  <0> d          16.181  56.254  11.696  0.00  0.00    -0.262 N 
ATOM      2  C3  <0> d          16.206  57.250  12.604  0.00  0.00     0.286 C 
ATOM      3  O2  <0> d          17.124  57.327  13.397  0.00  0.00    -0.264 OA
ATOM      4  H5  <0> d          15.449  56.193  11.064  0.00  0.00     0.190 HD
ENDROOT
BRANCH   2   5
ATOM      5  C4  <0> d          15.116  58.253  12.634  0.00  0.00     0.102 A 
ATOM      6  C5  <0> d          15.327  59.486  13.248  0.00  0.00     0.035 A 
ATOM      7  C6  <0> d          14.298  60.413  13.268  0.00  0.00     0.004 A 
ATOM      8  C7  <0> d          13.092  60.075  12.674  0.00  0.00     0.017 A 
ATOM      9  C8  <0> d          12.950  58.829  12.086  0.00  0.00     0.088 A 
ATOM     10  N3  <0> d          13.946  57.969  12.076  0.00  0.00    -0.361 N 
ATOM     11  H3  <0> d          13.816  57.063  11.627  1.00  0.00     0.165 HD
ENDBRANCH   2   5
BRANCH   1  12
ATOM     12  N1  <0> d          17.212  55.306  11.668  0.00  0.00    -0.268 N 
ATOM     13  C2  <0> d          17.064  54.129  12.307  0.00  0.00     0.232 C 
ATOM     14  C1  <0> d          18.172  53.110  12.276  0.00  0.00     0.119 C 
ATOM     15  O1  <0> d          16.036  53.891  12.906  0.00  0.00    -0.272 OA
ATOM     16  H4  <0> d          18.033  55.497  11.188  0.00  0.00     0.190 HD
ENDBRANCH   1  12
TORSDOF 2
ENDMDL
MODEL 5
REMARK VINA RESULT:    -6.747      2.213      5.590
REMARK INTER + INTRA:          -7.717
REMARK INTER:                  -7.528
REMARK INTRA:                  -0.189
REMARK UNBOUND:                -0.182
REMARK  2 active torsions:
REMARK  status: ('A' for Active; 'I' for Inactive)
REMARK       I    between atoms: N2_1  and  C3_2 
REMARK    1  A    between atoms: N2_1  and  N1_12 
REMARK    2  A    between atoms: C3_2  and  C4_5 
REMARK       I    between atoms: N1_12  and  C2_13 
ROOT
ATOM      1  N2  <0> d          13.692  58.702  12.638  0.00  0.00    -0.262 N 
ATOM      2  C3  <0> d          15.034  58.743  12.758  0.00  0.00     0.286 C 
ATOM      3  O2  <0> d          15.593  59.802  12.966  0.00  0.00    -0.264 OA
ATOM      4  H5  <0> d          13.246  57.858  12.472  0.00  0.00     0.190 HD
ENDROOT
BRANCH   2   5
ATOM      5  C4  <0> d          15.827  57.497  12.639  0.00  0.00     0.102 A 
ATOM      6  C5  <0> d          17.027  57.373  13.334  0.00  0.00     0.035 A 
ATOM      7  C6  <0> d          17.758  56.202  13.212  0.00  0.00     0.004 A 
ATOM      8  C7  <0> d          17.263  55.196  12.397  0.00  0.00     0.017 A 
ATOM      9  C8  <0> d          16.064  55.390  11.731  0.00  0.00     0.088 A 
ATOM     10  N3  <0> d          15.388  56.509  11.869  0.00  0.00    -0.361 N 
ATOM     11  H3  <0> d          14.503  56.620  11.374  1.00  0.00     0.165 HD
ENDBRANCH   2   5
BRANCH   1  12
ATOM     12  N1  <0> d          12.942  59.881  12.751  0.00  0.00    -0.268 N 
ATOM     13  C2  <0> d          11.880  60.084  11.947  0.00  0.00     0.232 C 
ATOM     14  C1  <0> d          11.074  61.350  12.068  0.00  0.00     0.119 C 
ATOM     15  O1  <0> d          11.574  59.245  11.125  0.00  0.00    -0.272 OA
ATOM     16  H4  <0> d          13.187  60.550  13.408  0.00  0.00     0.190 HD
ENDBRANCH   1  12
TORSDOF 2
ENDMDL
MODEL 6
REMARK VINA RESULT:    -6.647      4.128      5.508
REMARK INTER + INTRA:          -7.606
REMARK INTER:                  -7.425
REMARK INTRA:                  -0.181
REMARK UNBOUND:                -0.182
REMARK  2 active torsions:
REMARK  status: ('A' for Active; 'I' for Inactive)
REMARK       I    between atoms: N2_1  and  C3_2 
REMARK    1  A    between atoms: N2_1  and  N1_12 
REMARK    2  A    between atoms: C3_2  and  C4_5 
REMARK       I    between atoms: N1_12  and  C2_13 
ROOT
ATOM      1  N2  <0> d          16.171  53.100  15.058  0.00  0.00    -0.262 N 
ATOM      2  C3  <0> d          16.358  53.483  13.779  0.00  0.00     0.286 C 
ATOM      3  O2  <0> d          16.996  52.778  13.021  0.00  0.00    -0.264 OA
ATOM      4  H5  <0> d          15.662  53.662  15.662  0.00  0.00     0.190 HD
ENDROOT
BRANCH   2   5
ATOM      5  C4  <0> d          15.785  54.761  13.296  0.00  0.00     0.102 A 
ATOM      6  C5  <0> d          14.403  54.929  13.258  0.00  0.00     0.035 A 
ATOM      7  C6  <0> d          13.883  56.129  12.804  0.00  0.00     0.004 A 
ATOM      8  C7  <0> d          14.763  57.122  12.402  0.00  0.00     0.017 A 
ATOM      9  C8  <0> d          16.127  56.884  12.461  0.00  0.00     0.088 A 
ATOM     10  N3  <0> d          16.594  55.737  12.903  0.00  0.00    -0.361 N 
ATOM     11  H3  <0> d          17.603  55.594  12.944  1.00  0.00     0.165 HD
ENDBRANCH   2   5
BRANCH   1  12
ATOM     12  N1  <0> d          16.712  51.891  15.514  0.00  0.00    -0.268 N 
ATOM     13  C2  <0> d          15.983  51.082  16.307  0.00  0.00     0.232 C 
ATOM     14  C1  <0> d          16.565  49.782  16.797  0.00  0.00     0.119 C 
ATOM     15  O1  <0> d          14.857  51.402  16.626  0.00  0.00    -0.272 OA
ATOM     16  H4  <0> d          17.612  51.636  15.258  0.00  0.00     0.190 HD
ENDBRANCH   1  12
TORSDOF 2
ENDMDL
MODEL 7
REMARK VINA RESULT:    -6.618      1.803      2.362
REMARK INTER + INTRA:          -7.573
REMARK INTER:                  -7.392
REMARK INTRA:                  -0.181
REMARK UNBOUND:                -0.182
REMARK  2 active torsions:
REMARK  status: ('A' for Active; 'I' for Inactive)
REMARK       I    between atoms: N2_1  and  C3_2 
REMARK    1  A    between atoms: N2_1  and  N1_12 
REMARK    2  A    between atoms: C3_2  and  C4_5 
REMARK       I    between atoms: N1_12  and  C2_13 
ROOT
ATOM      1  N2  <0> d          14.856  57.687  12.394  0.00  0.00    -0.262 N 
ATOM      2  C3  <0> d          14.852  58.993  12.728  0.00  0.00     0.286 C 
ATOM      3  O2  <0> d          15.860  59.510  13.167  0.00  0.00    -0.264 OA
ATOM      4  H5  <0> d          14.052  57.274  12.044  0.00  0.00     0.190 HD
ENDROOT
BRANCH   2   5
ATOM      5  C4  <0> d          13.620  59.798  12.557  0.00  0.00     0.102 A 
ATOM      6  C5  <0> d          12.585  59.317  11.758  0.00  0.00     0.035 A 
ATOM      7  C6  <0> d          11.440  60.082  11.608  0.00  0.00     0.004 A 
ATOM      8  C7  <0> d          11.370  61.303  12.262  0.00  0.00     0.017 A 
ATOM      9  C8  <0> d          12.439  61.721  13.036  0.00  0.00     0.088 A 
ATOM     10  N3  <0> d          13.512  60.972  13.167  0.00  0.00    -0.361 N 
ATOM     11  H3  <0> d          14.281  61.302  13.751  1.00  0.00     0.165 HD
ENDBRANCH   2   5
BRANCH   1  12
ATOM     12  N1  <0> d          16.021  56.925  12.555  0.00  0.00    -0.268 N 
ATOM     13  C2  <0> d          15.952  55.580  12.557  0.00  0.00     0.232 C 
ATOM     14  C1  <0> d          17.205  54.762  12.729  0.00  0.00     0.119 C 
ATOM     15  O1  <0> d          14.881  55.028  12.418  0.00  0.00    -0.272 OA
ATOM     16  H4  <0> d          16.877  57.367  12.666  0.00  0.00     0.190 HD
ENDBRANCH   1  12
TORSDOF 2
ENDMDL
MODEL 8
REMARK VINA RESULT:    -6.308      1.812      5.786
REMARK INTER + INTRA:          -7.227
REMARK INTER:                  -7.043
REMARK INTRA:                  -0.184
REMARK UNBOUND:                -0.182
REMARK  2 active torsions:
REMARK  status: ('A' for Active; 'I' for Inactive)
REMARK       I    between atoms: N2_1  and  C3_2 
REMARK    1  A    between atoms: N2_1  and  N1_12 
REMARK    2  A    between atoms: C3_2  and  C4_5 
REMARK       I    between atoms: N1_12  and  C2_13 
ROOT
ATOM      1  N2  <0> d          15.005  57.385  12.397  0.00  0.00    -0.262 N 
ATOM      2  C3  <0> d          14.710  56.108  12.710  0.00  0.00     0.286 C 
ATOM      3  O2  <0> d          13.606  55.825  13.133  0.00  0.00    -0.264 OA
ATOM      4  H5  <0> d          15.885  57.610  12.059  0.00  0.00     0.190 HD
ENDROOT
BRANCH   2   5
ATOM      5  C4  <0> d          15.730  55.048  12.537  0.00  0.00     0.102 A 
ATOM      6  C5  <0> d          16.659  55.145  11.504  0.00  0.00     0.035 A 
ATOM      7  C6  <0> d          17.607  54.145  11.354  0.00  0.00     0.004 A 
ATOM      8  C7  <0> d          17.592  53.081  12.243  0.00  0.00     0.017 A 
ATOM      9  C8  <0> d          16.635  53.046  13.244  0.00  0.00     0.088 A 
ATOM     10  N3  <0> d          15.751  54.012  13.367  0.00  0.00    -0.361 N 
ATOM     11  H3  <0> d          15.064  53.965  14.119  1.00  0.00     0.165 HD
ENDBRANCH   2   5
BRANCH   1  12
ATOM     12  N1  <0> d          14.039  58.387  12.560  0.00  0.00    -0.268 N 
ATOM     13  C2  <0> d          14.410  59.624  12.946  0.00  0.00     0.232 C 
ATOM     14  C1  <0> d          13.372  60.701  13.122  0.00  0.00     0.119 C 
ATOM     15  O1  <0> d          15.580  59.869  13.152  0.00  0.00    -0.272 OA
ATOM     16  H4  <0> d          13.104  58.191  12.395  0.00  0.00     0.190 HD
ENDBRANCH   1  12
TORSDOF 2
ENDMDL
MODEL 9
REMARK VINA RESULT:    -6.197      5.292      7.005
REMARK INTER + INTRA:          -7.103
REMARK INTER:                  -6.922
REMARK INTRA:                  -0.182
REMARK UNBOUND:                -0.182
REMARK  2 active torsions:
REMARK  status: ('A' for Active; 'I' for Inactive)
REMARK       I    between atoms: N2_1  and  C3_2 
REMARK    1  A    between atoms: N2_1  and  N1_12 
REMARK    2  A    between atoms: C3_2  and  C4_5 
REMARK       I    between atoms: N1_12  and  C2_13 
ROOT
ATOM      1  N2  <0> d          16.539  52.030  15.751  0.00  0.00    -0.262 N 
ATOM      2  C3  <0> d          16.289  52.724  14.623  0.00  0.00     0.286 C 
ATOM      3  O2  <0> d          15.471  52.312  13.825  0.00  0.00    -0.264 OA
ATOM      4  H5  <0> d          17.191  52.359  16.388  0.00  0.00     0.190 HD
ENDROOT
BRANCH   2   5
ATOM      5  C4  <0> d          17.011  53.990  14.357  0.00  0.00     0.102 A 
ATOM      6  C5  <0> d          16.490  54.905  13.444  0.00  0.00     0.035 A 
ATOM      7  C6  <0> d          17.177  56.084  13.205  0.00  0.00     0.004 A 
ATOM      8  C7  <0> d          18.362  56.308  13.888  0.00  0.00     0.017 A 
ATOM      9  C8  <0> d          18.825  55.353  14.778  0.00  0.00     0.088 A 
ATOM     10  N3  <0> d          18.149  54.244  14.990  0.00  0.00    -0.361 N 
ATOM     11  H3  <0> d          18.509  53.563  15.658  1.00  0.00     0.165 HD
ENDBRANCH   2   5
BRANCH   1  12
ATOM     12  N1  <0> d          15.856  50.833  16.003  0.00  0.00    -0.268 N 
ATOM     13  C2  <0> d          16.402  49.902  16.808  0.00  0.00     0.232 C 
ATOM     14  C1  <0> d          15.668  48.614  17.079  0.00  0.00     0.119 C 
ATOM     15  O1  <0> d          17.486  50.101  17.316  0.00  0.00    -0.272 OA
ATOM     16  H4  <0> d          14.989  50.674  15.597  0.00  0.00     0.190 HD
ENDBRANCH   1  12
TORSDOF 2
ENDMDL
