MODEL 1
REMARK VINA RESULT:    -7.117      0.000      0.000
REMARK INTER + INTRA:          -8.273
REMARK INTER:                  -8.158
REMARK INTRA:                  -0.115
REMARK UNBOUND:                -0.115
REMARK  3 active torsions:
REMARK  status: ('A' for Active; 'I' for Inactive)
REMARK    1  A    between atoms: C3_3  and  S1_7 
REMARK    2  A    between atoms: C6_6  and  C7_13 
REMARK    3  A    between atoms: S1_7  and  N1_10 
ROOT
ATOM      1  C1  <0> d          15.201  59.341  13.146  0.00  0.00     0.020 A 
ATOM      2  C2  <0> d          14.374  60.442  13.212  0.00  0.00     0.026 A 
ATOM      3  C3  <0> d          13.102  60.392  12.668  0.00  0.00     0.079 A 
ATOM      4  C4  <0> d          12.652  59.236  12.054  0.00  0.00     0.026 A 
ATOM      5  C5  <0> d          13.468  58.127  11.980  0.00  0.00     0.020 A 
ATOM      6  C6  <0> d          14.753  58.171  12.527  0.00  0.00     0.040 A 
ENDROOT
BRANCH   3   7
ATOM      7  S1  <0> d          12.052  61.804  12.759  0.00  0.00     0.256 S 
ATOM      8  O3  <0> d          11.914  62.119  14.138  0.00  0.00    -0.201 OA
ATOM      9  O4  <0> d          12.546  62.738  11.809  0.00  0.00    -0.201 OA
BRANCH   7  10
ATOM     10  N1  <0> d          10.555  61.335  12.229  0.00  0.00    -0.324 N 
ATOM     11  H5  <0> d          10.475  60.648  11.550  0.00  0.00     0.169 HD
ATOM     12  H6  <0> d           9.759  61.749  12.597  0.00  0.00     0.169 HD
ENDBRANCH   7  10
ENDBRANCH   3   7
BRANCH   6  13
ATOM     13  C7  <0> d          15.631  56.989  12.451  0.00  0.00     0.209 C 
ATOM     14  O2  <0> d          15.342  56.058  11.714  0.00  0.00    -0.644 OA
ATOM     15  O1  <0> d          16.649  56.939  13.127  0.00  0.00    -0.644 OA
ENDBRANCH   6  13
TORSDOF 3
ENDMDL
MODEL 2
REMARK VINA RESULT:    -7.108      2.746      5.433
REMARK INTER + INTRA:          -8.262
REMARK INTER:                  -8.157
REMARK INTRA:                  -0.104
REMARK UNBOUND:                -0.115
REMARK  3 active torsions:
REMARK  status: ('A' for Active; 'I' for Inactive)
REMARK    1  A    between atoms: C3_3  and  S1_7 
REMARK    2  A    between atoms: C6_6  and  C7_13 
REMARK    3  A    between atoms: S1_7  and  N1_10 
ROOT
ATOM      1  C1  <0> d          12.696  59.245  12.108  0.00  0.00     0.020 A 
ATOM      2  C2  <0> d          13.384  58.054  12.013  0.00  0.00     0.026 A 
ATOM      3  C3  <0> d          14.660  57.943  12.539  0.00  0.00     0.079 A 
ATOM      4  C4  <0> d          15.253  59.026  13.165  0.00  0.00     0.026 A 
ATOM      5  C5  <0> d          14.577  60.223  13.267  0.00  0.00     0.020 A 
ATOM      6  C6  <0> d          13.289  60.342  12.738  0.00  0.00     0.040 A 
ENDROOT
BRANCH   3   7
ATOM      7  S1  <0> d          15.531  56.417  12.414  0.00  0.00     0.256 S 
ATOM      8  O3  <0> d          15.802  56.217  11.033  0.00  0.00    -0.201 OA
ATOM      9  O4  <0> d          16.558  56.455  13.394  0.00  0.00    -0.201 OA
BRANCH   7  10
ATOM     10  N1  <0> d          14.484  55.217  12.869  0.00  0.00    -0.324 N 
ATOM     11  H5  <0> d          14.813  54.444  13.352  0.00  0.00     0.169 HD
ATOM     12  H6  <0> d          13.541  55.288  12.650  0.00  0.00     0.169 HD
ENDBRANCH   7  10
ENDBRANCH   3   7
BRANCH   6  13
ATOM     13  C7  <0> d          12.560  61.620  12.844  0.00  0.00     0.209 C 
ATOM     14  O2  <0> d          12.381  62.306  11.848  0.00  0.00    -0.644 OA
ATOM     15  O1  <0> d          12.136  61.994  13.929  0.00  0.00    -0.644 OA
ENDBRANCH   6  13
TORSDOF 3
ENDMDL
MODEL 3
REMARK VINA RESULT:    -7.086      2.736      5.260
REMARK INTER + INTRA:          -8.237
REMARK INTER:                  -8.132
REMARK INTRA:                  -0.105
REMARK UNBOUND:                -0.115
REMARK  3 active torsions:
REMARK  status: ('A' for Active; 'I' for Inactive)
REMARK    1  A    between atoms: C3_3  and  S1_7 
REMARK    2  A    between atoms: C6_6  and  C7_13 
REMARK    3  A    between atoms: S1_7  and  N1_10 
ROOT
ATOM      1  C1  <0> d          14.522  60.240  13.223  0.00  0.00     0.020 A 
ATOM      2  C2  <0> d          15.204  59.047  13.113  0.00  0.00     0.026 A 
ATOM      3  C3  <0> d          14.613  57.963  12.487  0.00  0.00     0.079 A 
ATOM      4  C4  <0> d          13.335  58.068  11.967  0.00  0.00     0.026 A 
ATOM      5  C5  <0> d          12.641  59.256  12.071  0.00  0.00     0.020 A 
ATOM      6  C6  <0> d          13.231  60.354  12.701  0.00  0.00     0.040 A 
ENDROOT
BRANCH   3   7
ATOM      7  S1  <0> d          15.493  56.443  12.350  0.00  0.00     0.256 S 
ATOM      8  O3  <0> d          15.697  56.215  10.962  0.00  0.00    -0.201 OA
ATOM      9  O4  <0> d          16.568  56.511  13.276  0.00  0.00    -0.201 OA
BRANCH   7  10
ATOM     10  N1  <0> d          14.483  55.243  12.882  0.00  0.00    -0.324 N 
ATOM     11  H5  <0> d          14.345  55.112  13.833  0.00  0.00     0.169 HD
ATOM     12  H6  <0> d          14.031  54.671  12.243  0.00  0.00     0.169 HD
ENDBRANCH   7  10
ENDBRANCH   3   7
BRANCH   6  13
ATOM     13  C7  <0> d          12.494  61.627  12.815  0.00  0.00     0.209 C 
ATOM     14  O2  <0> d          12.221  62.267  11.811  0.00  0.00    -0.644 OA
ATOM     15  O1  <0> d          12.158  62.041  13.915  0.00  0.00    -0.644 OA
ENDBRANCH   6  13
TORSDOF 3
ENDMDL
MODEL 4
REMARK VINA RESULT:    -7.066      0.214      1.352
REMARK INTER + INTRA:          -8.214
REMARK INTER:                  -8.100
REMARK INTRA:                  -0.115
REMARK UNBOUND:                -0.115
REMARK  3 active torsions:
REMARK  status: ('A' for Active; 'I' for Inactive)
REMARK    1  A    between atoms: C3_3  and  S1_7 
REMARK    2  A    between atoms: C6_6  and  C7_13 
REMARK    3  A    between atoms: S1_7  and  N1_10 
ROOT
ATOM      1  C1  <0> d          13.363  58.246  12.016  0.00  0.00     0.020 A 
ATOM      2  C2  <0> d          12.596  59.388  12.121  0.00  0.00     0.026 A 
ATOM      3  C3  <0> d          13.118  60.525  12.712  0.00  0.00     0.079 A 
ATOM      4  C4  <0> d          14.413  60.525  13.202  0.00  0.00     0.026 A 
ATOM      5  C5  <0> d          15.191  59.391  13.104  0.00  0.00     0.020 A 
ATOM      6  C6  <0> d          14.670  58.240  12.508  0.00  0.00     0.040 A 
ENDROOT
BRANCH   3   7
ATOM      7  S1  <0> d          12.131  61.978  12.841  0.00  0.00     0.256 S 
ATOM      8  O3  <0> d          11.824  62.140  14.220  0.00  0.00    -0.201 OA
ATOM      9  O4  <0> d          12.789  62.984  12.084  0.00  0.00    -0.201 OA
BRANCH   7  10
ATOM     10  N1  <0> d          10.698  61.666  12.072  0.00  0.00    -0.324 N 
ATOM     11  H5  <0> d           9.907  61.451  12.589  0.00  0.00     0.169 HD
ATOM     12  H6  <0> d          10.651  61.697  11.103  0.00  0.00     0.169 HD
ENDBRANCH   7  10
ENDBRANCH   3   7
BRANCH   6  13
ATOM     13  C7  <0> d          15.497  57.023  12.400  0.00  0.00     0.209 C 
ATOM     14  O2  <0> d          15.155  56.115  11.656  0.00  0.00    -0.644 OA
ATOM     15  O1  <0> d          16.525  56.922  13.056  0.00  0.00    -0.644 OA
ENDBRANCH   6  13
TORSDOF 3
ENDMDL
MODEL 5
REMARK VINA RESULT:    -6.954      3.346      5.531
REMARK INTER + INTRA:          -8.086
REMARK INTER:                  -7.973
REMARK INTRA:                  -0.113
REMARK UNBOUND:                -0.115
REMARK  3 active torsions:
REMARK  status: ('A' for Active; 'I' for Inactive)
REMARK    1  A    between atoms: C3_3  and  S1_7 
REMARK    2  A    between atoms: C6_6  and  C7_13 
REMARK    3  A    between atoms: S1_7  and  N1_10 
ROOT
ATOM      1  C1  <0> d          15.017  59.919  13.271  0.00  0.00     0.020 A 
ATOM      2  C2  <0> d          16.017  58.970  13.312  0.00  0.00     0.026 A 
ATOM      3  C3  <0> d          15.772  57.682  12.869  0.00  0.00     0.079 A 
ATOM      4  C4  <0> d          14.523  57.337  12.383  0.00  0.00     0.026 A 
ATOM      5  C5  <0> d          13.514  58.275  12.337  0.00  0.00     0.020 A 
ATOM      6  C6  <0> d          13.754  59.578  12.781  0.00  0.00     0.040 A 
ENDROOT
BRANCH   3   7
ATOM      7  S1  <0> d          17.056  56.477  12.924  0.00  0.00     0.256 S 
ATOM      8  O3  <0> d          17.465  56.258  11.581  0.00  0.00    -0.201 OA
ATOM      9  O4  <0> d          17.960  56.893  13.938  0.00  0.00    -0.201 OA
BRANCH   7  10
ATOM     10  N1  <0> d          16.376  55.061  13.448  0.00  0.00    -0.324 N 
ATOM     11  H5  <0> d          16.395  54.275  12.880  0.00  0.00     0.169 HD
ATOM     12  H6  <0> d          15.956  55.018  14.321  0.00  0.00     0.169 HD
ENDBRANCH   7  10
ENDBRANCH   3   7
BRANCH   6  13
ATOM     13  C7  <0> d          12.679  60.587  12.735  0.00  0.00     0.209 C 
ATOM     14  O2  <0> d          12.675  61.514  13.532  0.00  0.00    -0.644 OA
ATOM     15  O1  <0> d          11.790  60.494  11.900  0.00  0.00    -0.644 OA
ENDBRANCH   6  13
TORSDOF 3
ENDMDL
MODEL 6
REMARK VINA RESULT:    -6.404      4.622      6.679
REMARK INTER + INTRA:          -7.455
REMARK INTER:                  -7.343
REMARK INTRA:                  -0.112
REMARK UNBOUND:                -0.115
REMARK  3 active torsions:
REMARK  status: ('A' for Active; 'I' for Inactive)
REMARK    1  A    between atoms: C3_3  and  S1_7 
REMARK    2  A    between atoms: C6_6  and  C7_13 
REMARK    3  A    between atoms: S1_7  and  N1_10 
ROOT
ATOM      1  C1  <0> d          14.107  56.497  12.778  0.00  0.00     0.020 A 
ATOM      2  C2  <0> d          14.631  55.233  12.953  0.00  0.00     0.026 A 
ATOM      3  C3  <0> d          15.996  55.058  13.095  0.00  0.00     0.079 A 
ATOM      4  C4  <0> d          16.846  56.151  13.064  0.00  0.00     0.026 A 
ATOM      5  C5  <0> d          16.337  57.420  12.890  0.00  0.00     0.020 A 
ATOM      6  C6  <0> d          14.960  57.604  12.746  0.00  0.00     0.040 A 
ENDROOT
BRANCH   3   7
ATOM      7  S1  <0> d          16.655  53.440  13.318  0.00  0.00     0.256 S 
ATOM      8  O3  <0> d          15.545  52.572  13.503  0.00  0.00    -0.201 OA
ATOM      9  O4  <0> d          17.611  53.245  12.285  0.00  0.00    -0.201 OA
BRANCH   7  10
ATOM     10  N1  <0> d          17.494  53.446  14.746  0.00  0.00    -0.324 N 
ATOM     11  H5  <0> d          18.268  54.021  14.851  0.00  0.00     0.169 HD
ATOM     12  H6  <0> d          17.212  52.873  15.476  0.00  0.00     0.169 HD
ENDBRANCH   7  10
ENDBRANCH   3   7
BRANCH   6  13
ATOM     13  C7  <0> d          14.408  58.959  12.560  0.00  0.00     0.209 C 
ATOM     14  O2  <0> d          14.915  59.910  13.136  0.00  0.00    -0.644 OA
ATOM     15  O1  <0> d          13.443  59.131  11.829  0.00  0.00    -0.644 OA
ENDBRANCH   6  13
TORSDOF 3
ENDMDL
MODEL 7
REMARK VINA RESULT:    -6.082      1.360      2.235
REMARK INTER + INTRA:          -7.086
REMARK INTER:                  -6.977
REMARK INTRA:                  -0.109
REMARK UNBOUND:                -0.115
REMARK  3 active torsions:
REMARK  status: ('A' for Active; 'I' for Inactive)
REMARK    1  A    between atoms: C3_3  and  S1_7 
REMARK    2  A    between atoms: C6_6  and  C7_13 
REMARK    3  A    between atoms: S1_7  and  N1_10 
ROOT
ATOM      1  C1  <0> d          14.558  57.615  12.375  0.00  0.00     0.020 A 
ATOM      2  C2  <0> d          13.510  58.509  12.309  0.00  0.00     0.026 A 
ATOM      3  C3  <0> d          13.680  59.814  12.734  0.00  0.00     0.079 A 
ATOM      4  C4  <0> d          14.904  60.234  13.228  0.00  0.00     0.026 A 
ATOM      5  C5  <0> d          15.961  59.351  13.299  0.00  0.00     0.020 A 
ATOM      6  C6  <0> d          15.796  58.032  12.872  0.00  0.00     0.040 A 
ENDROOT
BRANCH   3   7
ATOM      7  S1  <0> d          12.335  60.949  12.645  0.00  0.00     0.256 S 
ATOM      8  O3  <0> d          11.297  60.292  11.929  0.00  0.00    -0.201 OA
ATOM      9  O4  <0> d          12.149  61.461  13.957  0.00  0.00    -0.201 OA
BRANCH   7  10
ATOM     10  N1  <0> d          12.828  62.219  11.705  0.00  0.00    -0.324 N 
ATOM     11  H5  <0> d          13.412  62.063  10.947  0.00  0.00     0.169 HD
ATOM     12  H6  <0> d          12.533  63.120  11.913  0.00  0.00     0.169 HD
ENDBRANCH   7  10
ENDBRANCH   3   7
BRANCH   6  13
ATOM     13  C7  <0> d          16.923  57.082  12.946  0.00  0.00     0.209 C 
ATOM     14  O2  <0> d          17.580  56.993  13.973  0.00  0.00    -0.644 OA
ATOM     15  O1  <0> d          17.200  56.386  11.980  0.00  0.00    -0.644 OA
ENDBRANCH   6  13
TORSDOF 3
ENDMDL
MODEL 8
REMARK VINA RESULT:    -6.073      5.527      6.918
REMARK INTER + INTRA:          -7.076
REMARK INTER:                  -6.961
REMARK INTRA:                  -0.115
REMARK UNBOUND:                -0.115
REMARK  3 active torsions:
REMARK  status: ('A' for Active; 'I' for Inactive)
REMARK    1  A    between atoms: C3_3  and  S1_7 
REMARK    2  A    between atoms: C6_6  and  C7_13 
REMARK    3  A    between atoms: S1_7  and  N1_10 
ROOT
ATOM      1  C1  <0> d          16.936  52.573  13.690  0.00  0.00     0.020 A 
ATOM      2  C2  <0> d          17.089  53.519  12.699  0.00  0.00     0.026 A 
ATOM      3  C3  <0> d          16.227  54.600  12.630  0.00  0.00     0.079 A 
ATOM      4  C4  <0> d          15.206  54.739  13.555  0.00  0.00     0.026 A 
ATOM      5  C5  <0> d          15.042  53.800  14.551  0.00  0.00     0.020 A 
ATOM      6  C6  <0> d          15.909  52.707  14.627  0.00  0.00     0.040 A 
ENDROOT
BRANCH   3   7
ATOM      7  S1  <0> d          16.430  55.804  11.360  0.00  0.00     0.256 S 
ATOM      8  O3  <0> d          15.198  56.507  11.266  0.00  0.00    -0.201 OA
ATOM      9  O4  <0> d          17.664  56.461  11.618  0.00  0.00    -0.201 OA
BRANCH   7  10
ATOM     10  N1  <0> d          16.617  54.984   9.934  0.00  0.00    -0.324 N 
ATOM     11  H5  <0> d          15.917  55.011   9.264  0.00  0.00     0.169 HD
ATOM     12  H6  <0> d          17.427  54.477   9.769  0.00  0.00     0.169 HD
ENDBRANCH   7  10
ENDBRANCH   3   7
BRANCH   6  13
ATOM     13  C7  <0> d          15.738  51.699  15.690  0.00  0.00     0.209 C 
ATOM     14  O2  <0> d          16.601  50.853  15.876  0.00  0.00    -0.644 OA
ATOM     15  O1  <0> d          14.732  51.708  16.386  0.00  0.00    -0.644 OA
ENDBRANCH   6  13
TORSDOF 3
ENDMDL
MODEL 9
REMARK VINA RESULT:    -6.042      4.472      6.373
REMARK INTER + INTRA:          -7.040
REMARK INTER:                  -6.925
REMARK INTRA:                  -0.116
REMARK UNBOUND:                -0.115
REMARK  3 active torsions:
REMARK  status: ('A' for Active; 'I' for Inactive)
REMARK    1  A    between atoms: C3_3  and  S1_7 
REMARK    2  A    between atoms: C6_6  and  C7_13 
REMARK    3  A    between atoms: S1_7  and  N1_10 
ROOT
ATOM      1  C1  <0> d          16.395  57.978  13.159  0.00  0.00     0.020 A 
ATOM      2  C2  <0> d          17.043  56.768  13.290  0.00  0.00     0.026 A 
ATOM      3  C3  <0> d          16.363  55.585  13.059  0.00  0.00     0.079 A 
ATOM      4  C4  <0> d          15.027  55.608  12.694  0.00  0.00     0.026 A 
ATOM      5  C5  <0> d          14.367  56.811  12.560  0.00  0.00     0.020 A 
ATOM      6  C6  <0> d          15.048  58.009  12.792  0.00  0.00     0.040 A 
ENDROOT
BRANCH   3   7
ATOM      7  S1  <0> d          17.200  54.044  13.227  0.00  0.00     0.256 S 
ATOM      8  O3  <0> d          18.313  54.278  14.078  0.00  0.00    -0.201 OA
ATOM      9  O4  <0> d          16.205  53.073  13.522  0.00  0.00    -0.201 OA
BRANCH   7  10
ATOM     10  N1  <0> d          17.815  53.657  11.739  0.00  0.00    -0.324 N 
ATOM     11  H5  <0> d          18.244  54.338  11.200  0.00  0.00     0.169 HD
ATOM     12  H6  <0> d          17.745  52.748  11.407  0.00  0.00     0.169 HD
ENDBRANCH   7  10
ENDBRANCH   3   7
BRANCH   6  13
ATOM     13  C7  <0> d          14.347  59.299  12.651  0.00  0.00     0.209 C 
ATOM     14  O2  <0> d          13.304  59.362  12.017  0.00  0.00    -0.644 OA
ATOM     15  O1  <0> d          14.810  60.306  13.167  0.00  0.00    -0.644 OA
ENDBRANCH   6  13
TORSDOF 3
ENDMDL
