MODEL 1
REMARK VINA RESULT:    -8.263      0.000      0.000
REMARK INTER + INTRA:          -8.263
REMARK INTER:                  -8.263
REMARK INTRA:                   0.000
REMARK UNBOUND:                 0.000
REMARK  0 active torsions:
REMARK  status: ('A' for Active; 'I' for Inactive)
ROOT
ATOM      1  C1  <0> d          17.818  54.833  14.401  0.00  0.00     0.021 C 
ATOM      2  C2  <0> d          17.164  54.992  13.027  0.00  0.00     0.088 C 
ATOM      3  C3  <0> d          17.033  56.489  12.665  0.00  0.00     0.033 C 
ATOM      4  C4  <0> d          17.181  57.325  13.936  0.00  0.00     0.010 C 
ATOM      5  C5  <0> d          17.038  58.798  13.557  0.00  0.00     0.018 C 
ATOM      6  C6  <0> d          15.671  59.102  13.030  0.00  0.00     0.000 C 
ATOM      7  C7  <0> d          14.848  59.786  14.093  0.00  0.00    -0.009 C 
ATOM      8  C8  <0> d          13.526  59.926  13.877  0.00  0.00     0.052 C 
ATOM      9  C9  <0> d          13.031  59.347  12.598  0.00  0.00     0.177 C 
ATOM     10  O1  <0> d          12.199  59.903  11.906  0.00  0.00    -0.288 OA
ATOM     11  C10 <0> d          13.630  58.037  12.233  0.00  0.00    -0.006 C 
ATOM     12  C11 <0> d          14.958  57.914  12.472  0.00  0.00    -0.029 C 
ATOM     13  C12 <0> d          15.594  56.601  12.142  0.00  0.00     0.167 C 
ATOM     14  O2  <0> d          14.872  55.518  12.800  0.00  0.00    -0.311 OA
ATOM     15  C13 <0> d          15.706  54.499  13.050  0.00  0.00     0.263 C 
ATOM     16  O3  <0> d          15.366  53.358  13.256  0.00  0.00    -0.265 OA
ATOM     17  C14 <0> d          12.814  56.919  11.637  0.00  0.00     0.052 C 
ATOM     18  C15 <0> d          15.842  60.102  11.886  0.00  0.00     0.025 C 
ENDROOT
TORSDOF 0
ENDMDL
MODEL 2
REMARK VINA RESULT:    -7.888      9.267     12.477
REMARK INTER + INTRA:          -7.888
REMARK INTER:                  -7.888
REMARK INTRA:                   0.000
REMARK UNBOUND:                 0.000
REMARK  0 active torsions:
REMARK  status: ('A' for Active; 'I' for Inactive)
ROOT
ATOM      1  C1  <0> d          12.567  50.051  19.542  0.00  0.00     0.021 C 
ATOM      2  C2  <0> d          13.196  49.123  18.501  0.00  0.00     0.088 C 
ATOM      3  C3  <0> d          13.927  47.952  19.197  0.00  0.00     0.033 C 
ATOM      4  C4  <0> d          14.169  48.315  20.662  0.00  0.00     0.010 C 
ATOM      5  C5  <0> d          14.901  47.151  21.327  0.00  0.00     0.018 C 
ATOM      6  C6  <0> d          16.258  46.942  20.734  0.00  0.00     0.000 C 
ATOM      7  C7  <0> d          17.316  47.507  21.648  0.00  0.00    -0.009 C 
ATOM      8  C8  <0> d          18.571  47.616  21.172  0.00  0.00     0.052 C 
ATOM      9  C9  <0> d          18.752  47.178  19.762  0.00  0.00     0.177 C 
ATOM     10  O1  <0> d          19.723  46.546  19.391  0.00  0.00    -0.288 OA
ATOM     11  C10 <0> d          17.655  47.575  18.840  0.00  0.00    -0.006 C 
ATOM     12  C11 <0> d          16.401  47.471  19.345  0.00  0.00    -0.029 C 
ATOM     13  C12 <0> d          15.270  47.884  18.457  0.00  0.00     0.167 C 
ATOM     14  O2  <0> d          15.494  49.239  17.965  0.00  0.00    -0.311 OA
ATOM     15  C13 <0> d          14.318  49.839  17.729  0.00  0.00     0.263 C 
ATOM     16  O3  <0> d          14.159  50.797  17.011  0.00  0.00    -0.265 OA
ATOM     17  C14 <0> d          17.919  48.060  17.439  0.00  0.00     0.052 C 
ATOM     18  C15 <0> d          16.490  45.431  20.665  0.00  0.00     0.025 C 
ENDROOT
TORSDOF 0
ENDMDL
MODEL 3
REMARK VINA RESULT:    -7.477      1.920      5.502
REMARK INTER + INTRA:          -7.477
REMARK INTER:                  -7.477
REMARK INTRA:                   0.000
REMARK UNBOUND:                 0.000
REMARK  0 active torsions:
REMARK  status: ('A' for Active; 'I' for Inactive)
ROOT
ATOM      1  C1  <0> d          13.097  58.182  12.129  0.00  0.00     0.021 C 
ATOM      2  C2  <0> d          14.570  58.523  11.893  0.00  0.00     0.088 C 
ATOM      3  C3  <0> d          15.406  57.230  11.757  0.00  0.00     0.033 C 
ATOM      4  C4  <0> d          14.607  56.058  12.328  0.00  0.00     0.010 C 
ATOM      5  C5  <0> d          15.455  54.794  12.195  0.00  0.00     0.018 C 
ATOM      6  C6  <0> d          16.700  54.875  13.021  0.00  0.00     0.000 C 
ATOM      7  C7  <0> d          16.540  54.062  14.280  0.00  0.00    -0.009 C 
ATOM      8  C8  <0> d          17.466  54.204  15.247  0.00  0.00     0.052 C 
ATOM      9  C9  <0> d          18.541  55.190  14.952  0.00  0.00     0.177 C 
ATOM     10  O1  <0> d          19.707  54.993  15.236  0.00  0.00    -0.288 OA
ATOM     11  C10 <0> d          18.078  56.436  14.286  0.00  0.00    -0.006 C 
ATOM     12  C11 <0> d          17.136  56.271  13.327  0.00  0.00    -0.029 C 
ATOM     13  C12 <0> d          16.625  57.503  12.649  0.00  0.00     0.167 C 
ATOM     14  O2  <0> d          16.153  58.459  13.645  0.00  0.00    -0.311 OA
ATOM     15  C13 <0> d          15.180  59.218  13.122  0.00  0.00     0.263 C 
ATOM     16  O3  <0> d          14.834  60.295  13.549  0.00  0.00    -0.265 OA
ATOM     17  C14 <0> d          18.620  57.793  14.654  0.00  0.00     0.052 C 
ATOM     18  C15 <0> d          17.821  54.223  12.208  0.00  0.00     0.025 C 
ENDROOT
TORSDOF 0
ENDMDL
MODEL 4
REMARK VINA RESULT:    -7.288      8.444     11.194
REMARK INTER + INTRA:          -7.288
REMARK INTER:                  -7.288
REMARK INTRA:                   0.000
REMARK UNBOUND:                 0.000
REMARK  0 active torsions:
REMARK  status: ('A' for Active; 'I' for Inactive)
ROOT
ATOM      1  C1  <0> d          15.995  45.268  21.049  0.00  0.00     0.021 C 
ATOM      2  C2  <0> d          16.508  46.709  21.020  0.00  0.00     0.088 C 
ATOM      3  C3  <0> d          15.390  47.670  20.553  0.00  0.00     0.033 C 
ATOM      4  C4  <0> d          14.295  46.859  19.861  0.00  0.00     0.010 C 
ATOM      5  C5  <0> d          13.207  47.828  19.398  0.00  0.00     0.018 C 
ATOM      6  C6  <0> d          13.720  48.780  18.365  0.00  0.00     0.000 C 
ATOM      7  C7  <0> d          13.258  48.354  16.994  0.00  0.00    -0.009 C 
ATOM      8  C8  <0> d          13.811  48.957  15.925  0.00  0.00     0.052 C 
ATOM      9  C9  <0> d          14.852  49.972  16.240  0.00  0.00     0.177 C 
ATOM     10  O1  <0> d          14.942  51.027  15.641  0.00  0.00    -0.288 OA
ATOM     11  C10 <0> d          15.775  49.596  17.343  0.00  0.00    -0.006 C 
ATOM     12  C11 <0> d          15.199  48.978  18.402  0.00  0.00    -0.029 C 
ATOM     13  C12 <0> d          16.098  48.561  19.523  0.00  0.00     0.167 C 
ATOM     14  O2  <0> d          17.189  47.742  19.007  0.00  0.00    -0.311 OA
ATOM     15  C13 <0> d          17.602  46.884  19.951  0.00  0.00     0.263 C 
ATOM     16  O3  <0> d          18.677  46.333  19.967  0.00  0.00    -0.265 OA
ATOM     17  C14 <0> d          17.253  49.883  17.286  0.00  0.00     0.052 C 
ATOM     18  C15 <0> d          13.077  50.140  18.649  0.00  0.00     0.025 C 
ENDROOT
TORSDOF 0
ENDMDL
MODEL 5
REMARK VINA RESULT:    -7.285      8.559     12.104
REMARK INTER + INTRA:          -7.285
REMARK INTER:                  -7.285
REMARK INTRA:                   0.000
REMARK UNBOUND:                 0.000
REMARK  0 active torsions:
REMARK  status: ('A' for Active; 'I' for Inactive)
ROOT
ATOM      1  C1  <0> d          13.453  50.522  16.949  0.00  0.00     0.021 C 
ATOM      2  C2  <0> d          14.463  49.483  16.456  0.00  0.00     0.088 C 
ATOM      3  C3  <0> d          14.500  48.271  17.415  0.00  0.00     0.033 C 
ATOM      4  C4  <0> d          13.870  48.672  18.749  0.00  0.00     0.010 C 
ATOM      5  C5  <0> d          13.927  47.465  19.684  0.00  0.00     0.018 C 
ATOM      6  C6  <0> d          15.337  47.080  20.002  0.00  0.00     0.000 C 
ATOM      7  C7  <0> d          15.708  47.566  21.381  0.00  0.00    -0.009 C 
ATOM      8  C8  <0> d          17.003  47.514  21.743  0.00  0.00     0.052 C 
ATOM      9  C9  <0> d          17.930  46.995  20.701  0.00  0.00     0.177 C 
ATOM     10  O1  <0> d          18.851  46.243  20.958  0.00  0.00    -0.288 OA
ATOM     11  C10 <0> d          17.644  47.469  19.321  0.00  0.00    -0.006 C 
ATOM     12  C11 <0> d          16.333  47.527  18.983  0.00  0.00    -0.029 C 
ATOM     13  C12 <0> d          16.002  48.022  17.611  0.00  0.00     0.167 C 
ATOM     14  O2  <0> d          16.628  49.321  17.386  0.00  0.00    -0.311 OA
ATOM     15  C13 <0> d          15.898  50.035  16.518  0.00  0.00     0.263 C 
ATOM     16  O3  <0> d          16.306  50.972  15.873  0.00  0.00    -0.265 OA
ATOM     17  C14 <0> d          18.739  47.858  18.363  0.00  0.00     0.052 C 
ATOM     18  C15 <0> d          15.388  45.551  20.040  0.00  0.00     0.025 C 
ENDROOT
TORSDOF 0
ENDMDL
MODEL 6
REMARK VINA RESULT:    -7.048      9.696     11.322
REMARK INTER + INTRA:          -7.048
REMARK INTER:                  -7.048
REMARK INTRA:                   0.000
REMARK UNBOUND:                 0.000
REMARK  0 active torsions:
REMARK  status: ('A' for Active; 'I' for Inactive)
ROOT
ATOM      1  C1  <0> d          20.051  48.907  18.883  0.00  0.00     0.021 C 
ATOM      2  C2  <0> d          19.237  47.620  18.728  0.00  0.00     0.088 C 
ATOM      3  C3  <0> d          17.982  47.878  17.864  0.00  0.00     0.033 C 
ATOM      4  C4  <0> d          17.715  49.382  17.809  0.00  0.00     0.010 C 
ATOM      5  C5  <0> d          16.465  49.613  16.962  0.00  0.00     0.018 C 
ATOM      6  C6  <0> d          15.250  49.009  17.593  0.00  0.00     0.000 C 
ATOM      7  C7  <0> d          14.422  50.083  18.252  0.00  0.00    -0.009 C 
ATOM      8  C8  <0> d          13.419  49.699  19.064  0.00  0.00     0.052 C 
ATOM      9  C9  <0> d          13.270  48.228  19.231  0.00  0.00     0.177 C 
ATOM     10  O1  <0> d          12.185  47.679  19.265  0.00  0.00    -0.288 OA
ATOM     11  C10 <0> d          14.550  47.482  19.357  0.00  0.00    -0.006 C 
ATOM     12  C11 <0> d          15.549  47.895  18.541  0.00  0.00    -0.029 C 
ATOM     13  C12 <0> d          16.862  47.186  18.654  0.00  0.00     0.167 C 
ATOM     14  O2  <0> d          17.318  47.201  20.039  0.00  0.00    -0.311 OA
ATOM     15  C13 <0> d          18.657  47.167  20.079  0.00  0.00     0.263 C 
ATOM     16  O3  <0> d          19.315  46.825  21.033  0.00  0.00    -0.265 OA
ATOM     17  C14 <0> d          14.723  46.343  20.328  0.00  0.00     0.052 C 
ATOM     18  C15 <0> d          14.401  48.423  16.463  0.00  0.00     0.025 C 
ENDROOT
TORSDOF 0
ENDMDL
MODEL 7
REMARK VINA RESULT:    -6.708     11.751     14.022
REMARK INTER + INTRA:          -6.708
REMARK INTER:                  -6.708
REMARK INTRA:                   0.000
REMARK UNBOUND:                 0.000
REMARK  0 active torsions:
REMARK  status: ('A' for Active; 'I' for Inactive)
ROOT
ATOM      1  C1  <0> d          15.028  47.852  18.450  0.00  0.00     0.021 C 
ATOM      2  C2  <0> d          15.523  47.562  19.869  0.00  0.00     0.088 C 
ATOM      3  C3  <0> d          16.991  48.018  20.030  0.00  0.00     0.033 C 
ATOM      4  C4  <0> d          17.612  48.199  18.645  0.00  0.00     0.010 C 
ATOM      5  C5  <0> d          19.063  48.639  18.828  0.00  0.00     0.018 C 
ATOM      6  C6  <0> d          19.879  47.582  19.501  0.00  0.00     0.000 C 
ATOM      7  C7  <0> d          20.726  46.856  18.486  0.00  0.00    -0.009 C 
ATOM      8  C8  <0> d          21.348  45.726  18.872  0.00  0.00     0.052 C 
ATOM      9  C9  <0> d          21.092  45.314  20.279  0.00  0.00     0.177 C 
ATOM     10  O1  <0> d          21.964  44.867  21.000  0.00  0.00    -0.288 OA
ATOM     11  C10 <0> d          19.688  45.489  20.735  0.00  0.00    -0.006 C 
ATOM     12  C11 <0> d          19.077  46.626  20.322  0.00  0.00    -0.029 C 
ATOM     13  C12 <0> d          17.655  46.829  20.738  0.00  0.00     0.167 C 
ATOM     14  O2  <0> d          16.854  45.671  20.354  0.00  0.00    -0.311 OA
ATOM     15  C13 <0> d          15.586  46.047  20.132  0.00  0.00     0.263 C 
ATOM     16  O3  <0> d          14.631  45.307  20.143  0.00  0.00    -0.265 OA
ATOM     17  C14 <0> d          18.990  44.470  21.597  0.00  0.00     0.052 C 
ATOM     18  C15 <0> d          20.841  48.295  20.454  0.00  0.00     0.025 C 
ENDROOT
TORSDOF 0
ENDMDL
MODEL 8
REMARK VINA RESULT:    -6.568      9.929     12.882
REMARK INTER + INTRA:          -6.568
REMARK INTER:                  -6.568
REMARK INTRA:                   0.000
REMARK UNBOUND:                 0.000
REMARK  0 active torsions:
REMARK  status: ('A' for Active; 'I' for Inactive)
ROOT
ATOM      1  C1  <0> d          18.763  43.779  21.406  0.00  0.00     0.021 C 
ATOM      2  C2  <0> d          19.171  45.248  21.539  0.00  0.00     0.088 C 
ATOM      3  C3  <0> d          17.934  46.164  21.403  0.00  0.00     0.033 C 
ATOM      4  C4  <0> d          16.798  45.375  20.753  0.00  0.00     0.010 C 
ATOM      5  C5  <0> d          15.591  46.301  20.616  0.00  0.00     0.018 C 
ATOM      6  C6  <0> d          15.873  47.442  19.690  0.00  0.00     0.000 C 
ATOM      7  C7  <0> d          15.230  47.190  18.349  0.00  0.00    -0.009 C 
ATOM      8  C8  <0> d          15.569  47.995  17.325  0.00  0.00     0.052 C 
ATOM      9  C9  <0> d          16.579  49.039  17.648  0.00  0.00     0.177 C 
ATOM     10  O1  <0> d          16.505  50.176  17.224  0.00  0.00    -0.288 OA
ATOM     11  C10 <0> d          17.686  48.583  18.530  0.00  0.00    -0.006 C 
ATOM     12  C11 <0> d          17.324  47.762  19.546  0.00  0.00    -0.029 C 
ATOM     13  C12 <0> d          18.412  47.261  20.441  0.00  0.00     0.167 C 
ATOM     14  O2  <0> d          19.460  46.630  19.646  0.00  0.00    -0.311 OA
ATOM     15  C13 <0> d          20.070  45.679  20.367  0.00  0.00     0.263 C 
ATOM     16  O3  <0> d          21.167  45.229  20.137  0.00  0.00    -0.265 OA
ATOM     17  C14 <0> d          19.115  49.005  18.308  0.00  0.00     0.052 C 
ATOM     18  C15 <0> d          15.196  48.679  20.283  0.00  0.00     0.025 C 
ENDROOT
TORSDOF 0
ENDMDL
MODEL 9
REMARK VINA RESULT:    -6.526      9.981     12.667
REMARK INTER + INTRA:          -6.526
REMARK INTER:                  -6.526
REMARK INTRA:                   0.000
REMARK UNBOUND:                 0.000
REMARK  0 active torsions:
REMARK  status: ('A' for Active; 'I' for Inactive)
ROOT
ATOM      1  C1  <0> d          20.650  44.639  20.361  0.00  0.00     0.021 C 
ATOM      2  C2  <0> d          20.661  46.167  20.290  0.00  0.00     0.088 C 
ATOM      3  C3  <0> d          19.338  46.742  20.847  0.00  0.00     0.033 C 
ATOM      4  C4  <0> d          18.287  45.633  20.877  0.00  0.00     0.010 C 
ATOM      5  C5  <0> d          16.987  46.224  21.418  0.00  0.00     0.018 C 
ATOM      6  C6  <0> d          16.438  47.276  20.508  0.00  0.00     0.000 C 
ATOM      7  C7  <0> d          15.292  46.717  19.703  0.00  0.00    -0.009 C 
ATOM      8  C8  <0> d          14.828  47.447  18.671  0.00  0.00     0.052 C 
ATOM      9  C9  <0> d          15.541  48.732  18.435  0.00  0.00     0.177 C 
ATOM     10  O1  <0> d          14.961  49.759  18.138  0.00  0.00    -0.288 OA
ATOM     11  C10 <0> d          17.018  48.662  18.590  0.00  0.00    -0.006 C 
ATOM     12  C11 <0> d          17.462  47.910  19.626  0.00  0.00    -0.029 C 
ATOM     13  C12 <0> d          18.944  47.794  19.801  0.00  0.00     0.167 C 
ATOM     14  O2  <0> d          19.557  47.336  18.559  0.00  0.00    -0.311 OA
ATOM     15  C13 <0> d          20.678  46.652  18.830  0.00  0.00     0.263 C 
ATOM     16  O3  <0> d          21.574  46.449  18.045  0.00  0.00    -0.265 OA
ATOM     17  C14 <0> d          17.958  49.380  17.656  0.00  0.00     0.052 C 
ATOM     18  C15 <0> d          15.862  48.382  21.395  0.00  0.00     0.025 C 
ENDROOT
TORSDOF 0
ENDMDL
