MODEL 1
REMARK VINA RESULT:    -8.240      0.000      0.000
REMARK INTER + INTRA:          -8.240
REMARK INTER:                  -8.240
REMARK INTRA:                   0.000
REMARK UNBOUND:                 0.000
REMARK  0 active torsions:
REMARK  status: ('A' for Active; 'I' for Inactive)
ROOT
ATOM      1  C1  <0> d          11.076  61.034  11.994  0.00  0.00     0.052 C 
ATOM      2  C2  <0> d          12.162  59.998  12.128  0.00  0.00    -0.007 A 
ATOM      3  C3  <0> d          11.936  58.746  11.709  0.00  0.00     0.066 A 
ATOM      4  C4  <0> d          12.978  57.708  11.825  0.00  0.00     0.183 A 
ATOM      5  O1  <0> d          12.757  56.577  11.439  0.00  0.00    -0.288 OA
ATOM      6  C5  <0> d          14.292  58.049  12.410  0.00  0.00     0.028 A 
ATOM      7  C6  <0> d          15.290  57.090  12.531  0.00  0.00     0.016 A 
ATOM      8  C7  <0> d          16.514  57.436  13.083  0.00  0.00     0.001 A 
ATOM      9  C8  <0> d          16.747  58.727  13.516  0.00  0.00     0.001 A 
ATOM     10  C9  <0> d          15.762  59.694  13.403  0.00  0.00     0.016 A 
ATOM     11  C10 <0> d          14.530  59.364  12.851  0.00  0.00     0.029 A 
ATOM     12  C11 <0> d          13.462  60.378  12.712  0.00  0.00     0.189 A 
ATOM     13  O2  <0> d          13.654  61.519  13.083  0.00  0.00    -0.287 OA
ENDROOT
TORSDOF 0
ENDMDL
MODEL 2
REMARK VINA RESULT:    -8.226      1.359      3.811
REMARK INTER + INTRA:          -8.226
REMARK INTER:                  -8.226
REMARK INTRA:                   0.000
REMARK UNBOUND:                 0.000
REMARK  0 active torsions:
REMARK  status: ('A' for Active; 'I' for Inactive)
ROOT
ATOM      1  C1  <0> d          17.151  56.374  13.111  0.00  0.00     0.052 C 
ATOM      2  C2  <0> d          15.867  57.113  12.834  0.00  0.00    -0.007 A 
ATOM      3  C3  <0> d          14.814  56.447  12.342  0.00  0.00     0.066 A 
ATOM      4  C4  <0> d          13.543  57.141  12.061  0.00  0.00     0.183 A 
ATOM      5  O1  <0> d          12.597  56.522  11.615  0.00  0.00    -0.288 OA
ATOM      6  C5  <0> d          13.424  58.591  12.323  0.00  0.00     0.028 A 
ATOM      7  C6  <0> d          12.238  59.268  12.067  0.00  0.00     0.016 A 
ATOM      8  C7  <0> d          12.152  60.628  12.322  0.00  0.00     0.001 A 
ATOM      9  C8  <0> d          13.239  61.315  12.829  0.00  0.00     0.001 A 
ATOM     10  C9  <0> d          14.428  60.654  13.090  0.00  0.00     0.016 A 
ATOM     11  C10 <0> d          14.530  59.291  12.839  0.00  0.00     0.029 A 
ATOM     12  C11 <0> d          15.786  58.559  13.114  0.00  0.00     0.189 A 
ATOM     13  O2  <0> d          16.747  59.149  13.565  0.00  0.00    -0.287 OA
ENDROOT
TORSDOF 0
ENDMDL
MODEL 3
REMARK VINA RESULT:    -7.948      2.603      5.581
REMARK INTER + INTRA:          -7.948
REMARK INTER:                  -7.948
REMARK INTRA:                   0.000
REMARK UNBOUND:                 0.000
REMARK  0 active torsions:
REMARK  status: ('A' for Active; 'I' for Inactive)
ROOT
ATOM      1  C1  <0> d          17.883  53.671  12.698  0.00  0.00     0.052 C 
ATOM      2  C2  <0> d          17.493  55.101  12.968  0.00  0.00    -0.007 A 
ATOM      3  C3  <0> d          18.271  55.862  13.749  0.00  0.00     0.066 A 
ATOM      4  C4  <0> d          17.918  57.266  14.032  0.00  0.00     0.183 A 
ATOM      5  O1  <0> d          18.636  57.943  14.743  0.00  0.00    -0.288 OA
ATOM      6  C5  <0> d          16.691  57.847  13.449  0.00  0.00     0.028 A 
ATOM      7  C6  <0> d          16.336  59.166  13.700  0.00  0.00     0.016 A 
ATOM      8  C7  <0> d          15.179  59.687  13.140  0.00  0.00     0.001 A 
ATOM      9  C8  <0> d          14.376  58.902  12.335  0.00  0.00     0.001 A 
ATOM     10  C9  <0> d          14.717  57.585  12.075  0.00  0.00     0.016 A 
ATOM     11  C10 <0> d          15.873  57.048  12.629  0.00  0.00     0.029 A 
ATOM     12  C11 <0> d          16.263  55.646  12.363  0.00  0.00     0.189 A 
ATOM     13  O2  <0> d          15.570  54.946  11.653  0.00  0.00    -0.287 OA
ENDROOT
TORSDOF 0
ENDMDL
MODEL 4
REMARK VINA RESULT:    -7.891      2.053      4.513
REMARK INTER + INTRA:          -7.891
REMARK INTER:                  -7.891
REMARK INTRA:                   0.000
REMARK UNBOUND:                 0.000
REMARK  0 active torsions:
REMARK  status: ('A' for Active; 'I' for Inactive)
ROOT
ATOM      1  C1  <0> d          18.959  56.161  14.297  0.00  0.00     0.052 C 
ATOM      2  C2  <0> d          17.615  56.557  13.740  0.00  0.00    -0.007 A 
ATOM      3  C3  <0> d          16.827  55.624  13.191  0.00  0.00     0.066 A 
ATOM      4  C4  <0> d          15.506  55.978  12.638  0.00  0.00     0.183 A 
ATOM      5  O1  <0> d          14.802  55.119  12.144  0.00  0.00    -0.288 OA
ATOM      6  C5  <0> d          15.041  57.380  12.686  0.00  0.00     0.028 A 
ATOM      7  C6  <0> d          13.802  57.740  12.172  0.00  0.00     0.016 A 
ATOM      8  C7  <0> d          13.389  59.062  12.231  0.00  0.00     0.001 A 
ATOM      9  C8  <0> d          14.203  60.026  12.796  0.00  0.00     0.001 A 
ATOM     10  C9  <0> d          15.442  59.682  13.313  0.00  0.00     0.016 A 
ATOM     11  C10 <0> d          15.870  58.361  13.262  0.00  0.00     0.029 A 
ATOM     12  C11 <0> d          17.185  57.966  13.812  0.00  0.00     0.189 A 
ATOM     13  O2  <0> d          17.909  58.800  14.317  0.00  0.00    -0.287 OA
ENDROOT
TORSDOF 0
ENDMDL
MODEL 5
REMARK VINA RESULT:    -7.855      1.542      4.517
REMARK INTER + INTRA:          -7.855
REMARK INTER:                  -7.855
REMARK INTRA:                   0.000
REMARK UNBOUND:                 0.000
REMARK  0 active torsions:
REMARK  status: ('A' for Active; 'I' for Inactive)
ROOT
ATOM      1  C1  <0> d          15.420  54.724  12.544  0.00  0.00     0.052 C 
ATOM      2  C2  <0> d          15.255  56.214  12.698  0.00  0.00    -0.007 A 
ATOM      3  C3  <0> d          16.292  56.953  13.113  0.00  0.00     0.066 A 
ATOM      4  C4  <0> d          16.164  58.414  13.275  0.00  0.00     0.183 A 
ATOM      5  O1  <0> d          17.115  59.071  13.652  0.00  0.00    -0.288 OA
ATOM      6  C5  <0> d          14.877  59.076  12.975  0.00  0.00     0.028 A 
ATOM      7  C6  <0> d          14.731  60.450  13.119  0.00  0.00     0.016 A 
ATOM      8  C7  <0> d          13.512  61.047  12.831  0.00  0.00     0.001 A 
ATOM      9  C8  <0> d          12.442  60.284  12.404  0.00  0.00     0.001 A 
ATOM     10  C9  <0> d          12.573  58.913  12.256  0.00  0.00     0.016 A 
ATOM     11  C10 <0> d          13.787  58.299  12.540  0.00  0.00     0.029 A 
ATOM     12  C11 <0> d          13.956  56.838  12.385  0.00  0.00     0.189 A 
ATOM     13  O2  <0> d          13.027  56.155  12.005  0.00  0.00    -0.287 OA
ENDROOT
TORSDOF 0
ENDMDL
MODEL 6
REMARK VINA RESULT:    -7.811      2.066      3.924
REMARK INTER + INTRA:          -7.811
REMARK INTER:                  -7.811
REMARK INTRA:                   0.000
REMARK UNBOUND:                 0.000
REMARK  0 active torsions:
REMARK  status: ('A' for Active; 'I' for Inactive)
ROOT
ATOM      1  C1  <0> d          13.330  59.593  12.482  0.00  0.00     0.052 C 
ATOM      2  C2  <0> d          14.526  58.710  12.731  0.00  0.00    -0.007 A 
ATOM      3  C3  <0> d          15.596  59.210  13.362  0.00  0.00     0.066 A 
ATOM      4  C4  <0> d          16.782  58.372  13.622  0.00  0.00     0.183 A 
ATOM      5  O1  <0> d          17.745  58.841  14.197  0.00  0.00    -0.288 OA
ATOM      6  C5  <0> d          16.795  56.961  13.182  0.00  0.00     0.028 A 
ATOM      7  C6  <0> d          17.900  56.151  13.415  0.00  0.00     0.016 A 
ATOM      8  C7  <0> d          17.887  54.831  12.992  0.00  0.00     0.001 A 
ATOM      9  C8  <0> d          16.783  54.315  12.339  0.00  0.00     0.001 A 
ATOM     10  C9  <0> d          15.674  55.111  12.100  0.00  0.00     0.016 A 
ATOM     11  C10 <0> d          15.672  56.436  12.518  0.00  0.00     0.029 A 
ATOM     12  C11 <0> d          14.499  57.306  12.281  0.00  0.00     0.189 A 
ATOM     13  O2  <0> d          13.519  56.865  11.714  0.00  0.00    -0.287 OA
ENDROOT
TORSDOF 0
ENDMDL
MODEL 7
REMARK VINA RESULT:    -7.707      1.717      2.653
REMARK INTER + INTRA:          -7.707
REMARK INTER:                  -7.707
REMARK INTRA:                   0.000
REMARK UNBOUND:                 0.000
REMARK  0 active torsions:
REMARK  status: ('A' for Active; 'I' for Inactive)
ROOT
ATOM      1  C1  <0> d          14.145  60.646  13.138  0.00  0.00     0.052 C 
ATOM      2  C2  <0> d          14.464  59.188  12.923  0.00  0.00    -0.007 A 
ATOM      3  C3  <0> d          13.493  58.350  12.536  0.00  0.00     0.066 A 
ATOM      4  C4  <0> d          13.772  56.918  12.316  0.00  0.00     0.183 A 
ATOM      5  O1  <0> d          12.880  56.171  11.964  0.00  0.00    -0.288 OA
ATOM      6  C5  <0> d          15.139  56.396  12.525  0.00  0.00     0.028 A 
ATOM      7  C6  <0> d          15.427  55.052  12.325  0.00  0.00     0.016 A 
ATOM      8  C7  <0> d          16.718  54.587  12.528  0.00  0.00     0.001 A 
ATOM      9  C8  <0> d          17.719  55.451  12.928  0.00  0.00     0.001 A 
ATOM     10  C9  <0> d          17.446  56.794  13.132  0.00  0.00     0.016 A 
ATOM     11  C10 <0> d          16.158  57.276  12.933  0.00  0.00     0.029 A 
ATOM     12  C11 <0> d          15.841  58.706  13.137  0.00  0.00     0.189 A 
ATOM     13  O2  <0> d          16.711  59.479  13.484  0.00  0.00    -0.287 OA
ENDROOT
TORSDOF 0
ENDMDL
MODEL 8
REMARK VINA RESULT:    -7.649      2.264      4.622
REMARK INTER + INTRA:          -7.649
REMARK INTER:                  -7.649
REMARK INTRA:                   0.000
REMARK UNBOUND:                 0.000
REMARK  0 active torsions:
REMARK  status: ('A' for Active; 'I' for Inactive)
ROOT
ATOM      1  C1  <0> d          17.823  54.037  13.195  0.00  0.00     0.052 C 
ATOM      2  C2  <0> d          16.783  55.119  13.058  0.00  0.00    -0.007 A 
ATOM      3  C3  <0> d          15.517  54.785  12.777  0.00  0.00     0.066 A 
ATOM      4  C4  <0> d          14.474  55.819  12.636  0.00  0.00     0.183 A 
ATOM      5  O1  <0> d          13.329  55.500  12.381  0.00  0.00    -0.288 OA
ATOM      6  C5  <0> d          14.826  57.245  12.805  0.00  0.00     0.028 A 
ATOM      7  C6  <0> d          13.863  58.238  12.678  0.00  0.00     0.016 A 
ATOM      8  C7  <0> d          14.219  59.568  12.842  0.00  0.00     0.001 A 
ATOM      9  C8  <0> d          15.526  59.912  13.131  0.00  0.00     0.001 A 
ATOM     10  C9  <0> d          16.498  58.933  13.261  0.00  0.00     0.016 A 
ATOM     11  C10 <0> d          16.157  57.596  13.100  0.00  0.00     0.029 A 
ATOM     12  C11 <0> d          17.172  56.530  13.239  0.00  0.00     0.189 A 
ATOM     13  O2  <0> d          18.324  56.816  13.498  0.00  0.00    -0.287 OA
ENDROOT
TORSDOF 0
ENDMDL
MODEL 9
REMARK VINA RESULT:    -6.651      3.211      4.875
REMARK INTER + INTRA:          -6.651
REMARK INTER:                  -6.651
REMARK INTRA:                   0.000
REMARK UNBOUND:                 0.000
REMARK  0 active torsions:
REMARK  status: ('A' for Active; 'I' for Inactive)
ROOT
ATOM      1  C1  <0> d          13.417  57.803  12.449  0.00  0.00     0.052 C 
ATOM      2  C2  <0> d          14.525  56.801  12.243  0.00  0.00    -0.007 A 
ATOM      3  C3  <0> d          15.482  57.052  11.341  0.00  0.00     0.066 A 
ATOM      4  C4  <0> d          16.581  56.092  11.116  0.00  0.00     0.183 A 
ATOM      5  O1  <0> d          17.442  56.335  10.293  0.00  0.00    -0.288 OA
ATOM      6  C5  <0> d          16.630  54.837  11.895  0.00  0.00     0.028 A 
ATOM      7  C6  <0> d          17.654  53.918  11.702  0.00  0.00     0.016 A 
ATOM      8  C7  <0> d          17.678  52.747  12.446  0.00  0.00     0.001 A 
ATOM      9  C8  <0> d          16.689  52.489  13.376  0.00  0.00     0.001 A 
ATOM     10  C9  <0> d          15.662  53.396  13.580  0.00  0.00     0.016 A 
ATOM     11  C10 <0> d          15.624  54.574  12.842  0.00  0.00     0.029 A 
ATOM     12  C11 <0> d          14.543  55.563  13.044  0.00  0.00     0.189 A 
ATOM     13  O2  <0> d          13.670  55.352  13.862  0.00  0.00    -0.287 OA
ENDROOT
TORSDOF 0
ENDMDL
