MODEL 1
REMARK VINA RESULT:    -7.090      0.000      0.000
REMARK INTER + INTRA:          -8.241
REMARK INTER:                  -8.136
REMARK INTRA:                  -0.105
REMARK UNBOUND:                -0.114
REMARK  3 active torsions:
REMARK  status: ('A' for Active; 'I' for Inactive)
REMARK    1  A    between atoms: C3_3  and  S1_7 
REMARK    2  A    between atoms: C6_6  and  C7_13 
REMARK    3  A    between atoms: S1_7  and  N1_10 
ROOT
ATOM      1  C1  <0> d          14.514  60.233  13.249  0.00  0.00     0.020 A 
ATOM      2  C2  <0> d          15.174  59.027  13.140  0.00  0.00     0.026 A 
ATOM      3  C3  <0> d          14.572  57.960  12.495  0.00  0.00     0.079 A 
ATOM      4  C4  <0> d          13.305  58.096  11.954  0.00  0.00     0.026 A 
ATOM      5  C5  <0> d          12.634  59.296  12.056  0.00  0.00     0.020 A 
ATOM      6  C6  <0> d          13.235  60.377  12.705  0.00  0.00     0.040 A 
ENDROOT
BRANCH   3   7
ATOM      7  S1  <0> d          15.424  56.424  12.360  0.00  0.00     0.256 S 
ATOM      8  O3  <0> d          15.702  56.234  10.979  0.00  0.00    -0.201 OA
ATOM      9  O4  <0> d          16.444  56.437  13.348  0.00  0.00    -0.201 OA
BRANCH   7  10
ATOM     10  N1  <0> d          14.357  55.234  12.795  0.00  0.00    -0.324 N 
ATOM     11  H5  <0> d          13.458  55.232  12.431  0.00  0.00     0.169 HD
ATOM     12  H6  <0> d          14.631  54.540  13.414  0.00  0.00     0.169 HD
ENDBRANCH   7  10
ENDBRANCH   3   7
BRANCH   6  13
ATOM     13  C7  <0> d          12.522  61.664  12.818  0.00  0.00     0.209 C 
ATOM     14  O2  <0> d          12.146  62.061  13.911  0.00  0.00    -0.644 OA
ATOM     15  O1  <0> d          12.306  62.332  11.817  0.00  0.00    -0.644 OA
ENDBRANCH   6  13
TORSDOF 3
ENDMDL
MODEL 2
REMARK VINA RESULT:    -7.082      0.061      1.337
REMARK INTER + INTRA:          -8.232
REMARK INTER:                  -8.127
REMARK INTRA:                  -0.105
REMARK UNBOUND:                -0.114
REMARK  3 active torsions:
REMARK  status: ('A' for Active; 'I' for Inactive)
REMARK    1  A    between atoms: C3_3  and  S1_7 
REMARK    2  A    between atoms: C6_6  and  C7_13 
REMARK    3  A    between atoms: S1_7  and  N1_10 
ROOT
ATOM      1  C1  <0> d          12.636  59.260  12.056  0.00  0.00     0.020 A 
ATOM      2  C2  <0> d          13.335  58.075  11.956  0.00  0.00     0.026 A 
ATOM      3  C3  <0> d          14.603  57.966  12.499  0.00  0.00     0.079 A 
ATOM      4  C4  <0> d          15.179  59.045  13.148  0.00  0.00     0.026 A 
ATOM      5  C5  <0> d          14.493  60.236  13.256  0.00  0.00     0.020 A 
ATOM      6  C6  <0> d          13.212  60.353  12.710  0.00  0.00     0.040 A 
ENDROOT
BRANCH   3   7
ATOM      7  S1  <0> d          15.486  56.448  12.366  0.00  0.00     0.256 S 
ATOM      8  O3  <0> d          15.751  56.252  10.984  0.00  0.00    -0.201 OA
ATOM      9  O4  <0> d          16.519  56.493  13.341  0.00  0.00    -0.201 OA
BRANCH   7  10
ATOM     10  N1  <0> d          14.452  55.238  12.826  0.00  0.00    -0.324 N 
ATOM     11  H5  <0> d          13.604  55.127  12.370  0.00  0.00     0.169 HD
ATOM     12  H6  <0> d          14.695  54.643  13.552  0.00  0.00     0.169 HD
ENDBRANCH   7  10
ENDBRANCH   3   7
BRANCH   6  13
ATOM     13  C7  <0> d          12.472  61.624  12.821  0.00  0.00     0.209 C 
ATOM     14  O2  <0> d          12.110  62.027  13.917  0.00  0.00    -0.644 OA
ATOM     15  O1  <0> d          12.221  62.275  11.817  0.00  0.00    -0.644 OA
ENDBRANCH   6  13
TORSDOF 3
ENDMDL
MODEL 3
REMARK VINA RESULT:    -7.079      2.776      5.475
REMARK INTER + INTRA:          -8.228
REMARK INTER:                  -8.113
REMARK INTRA:                  -0.115
REMARK UNBOUND:                -0.114
REMARK  3 active torsions:
REMARK  status: ('A' for Active; 'I' for Inactive)
REMARK    1  A    between atoms: C3_3  and  S1_7 
REMARK    2  A    between atoms: C6_6  and  C7_13 
REMARK    3  A    between atoms: S1_7  and  N1_10 
ROOT
ATOM      1  C1  <0> d          13.387  58.224  11.994  0.00  0.00     0.020 A 
ATOM      2  C2  <0> d          12.598  59.350  12.095  0.00  0.00     0.026 A 
ATOM      3  C3  <0> d          13.084  60.487  12.716  0.00  0.00     0.079 A 
ATOM      4  C4  <0> d          14.366  60.504  13.238  0.00  0.00     0.026 A 
ATOM      5  C5  <0> d          15.166  59.385  13.144  0.00  0.00     0.020 A 
ATOM      6  C6  <0> d          14.682  58.233  12.519  0.00  0.00     0.040 A 
ENDROOT
BRANCH   3   7
ATOM      7  S1  <0> d          12.068  61.921  12.839  0.00  0.00     0.256 S 
ATOM      8  O3  <0> d          11.788  62.103  14.221  0.00  0.00    -0.201 OA
ATOM      9  O4  <0> d          12.687  62.926  12.049  0.00  0.00    -0.201 OA
BRANCH   7  10
ATOM     10  N1  <0> d          10.626  61.563  12.108  0.00  0.00    -0.324 N 
ATOM     11  H5  <0> d           9.818  61.493  12.639  0.00  0.00     0.169 HD
ATOM     12  H6  <0> d          10.590  61.422  11.149  0.00  0.00     0.169 HD
ENDBRANCH   7  10
ENDBRANCH   3   7
BRANCH   6  13
ATOM     13  C7  <0> d          15.533  57.033  12.416  0.00  0.00     0.209 C 
ATOM     14  O2  <0> d          15.216  56.121  11.667  0.00  0.00    -0.644 OA
ATOM     15  O1  <0> d          16.556  56.950  13.081  0.00  0.00    -0.644 OA
ENDBRANCH   6  13
TORSDOF 3
ENDMDL
MODEL 4
REMARK VINA RESULT:    -7.072      2.780      5.313
REMARK INTER + INTRA:          -8.220
REMARK INTER:                  -8.106
REMARK INTRA:                  -0.114
REMARK UNBOUND:                -0.114
REMARK  3 active torsions:
REMARK  status: ('A' for Active; 'I' for Inactive)
REMARK    1  A    between atoms: C3_3  and  S1_7 
REMARK    2  A    between atoms: C6_6  and  C7_13 
REMARK    3  A    between atoms: S1_7  and  N1_10 
ROOT
ATOM      1  C1  <0> d          15.176  59.372  13.104  0.00  0.00     0.020 A 
ATOM      2  C2  <0> d          14.391  60.501  13.202  0.00  0.00     0.026 A 
ATOM      3  C3  <0> d          13.096  60.494  12.714  0.00  0.00     0.079 A 
ATOM      4  C4  <0> d          12.579  59.353  12.125  0.00  0.00     0.026 A 
ATOM      5  C5  <0> d          13.353  58.216  12.020  0.00  0.00     0.020 A 
ATOM      6  C6  <0> d          14.661  58.217  12.511  0.00  0.00     0.040 A 
ENDROOT
BRANCH   3   7
ATOM      7  S1  <0> d          12.101  61.942  12.845  0.00  0.00     0.256 S 
ATOM      8  O3  <0> d          11.831  62.125  14.228  0.00  0.00    -0.201 OA
ATOM      9  O4  <0> d          12.731  62.939  12.053  0.00  0.00    -0.201 OA
BRANCH   7  10
ATOM     10  N1  <0> d          10.651  61.605  12.120  0.00  0.00    -0.324 N 
ATOM     11  H5  <0> d          10.595  60.910  11.447  0.00  0.00     0.169 HD
ATOM     12  H6  <0> d           9.857  62.105  12.369  0.00  0.00     0.169 HD
ENDBRANCH   7  10
ENDBRANCH   3   7
BRANCH   6  13
ATOM     13  C7  <0> d          15.493  57.004  12.401  0.00  0.00     0.209 C 
ATOM     14  O2  <0> d          15.174  56.110  11.631  0.00  0.00    -0.644 OA
ATOM     15  O1  <0> d          16.503  56.892  13.083  0.00  0.00    -0.644 OA
ENDBRANCH   6  13
TORSDOF 3
ENDMDL
MODEL 5
REMARK VINA RESULT:    -6.927      1.328      2.030
REMARK INTER + INTRA:          -8.053
REMARK INTER:                  -7.939
REMARK INTRA:                  -0.115
REMARK UNBOUND:                -0.114
REMARK  3 active torsions:
REMARK  status: ('A' for Active; 'I' for Inactive)
REMARK    1  A    between atoms: C3_3  and  S1_7 
REMARK    2  A    between atoms: C6_6  and  C7_13 
REMARK    3  A    between atoms: S1_7  and  N1_10 
ROOT
ATOM      1  C1  <0> d          13.433  58.201  12.294  0.00  0.00     0.020 A 
ATOM      2  C2  <0> d          14.455  57.277  12.344  0.00  0.00     0.026 A 
ATOM      3  C3  <0> d          15.700  57.641  12.826  0.00  0.00     0.079 A 
ATOM      4  C4  <0> d          15.928  58.935  13.262  0.00  0.00     0.026 A 
ATOM      5  C5  <0> d          14.915  59.869  13.218  0.00  0.00     0.020 A 
ATOM      6  C6  <0> d          13.656  59.509  12.733  0.00  0.00     0.040 A 
ENDROOT
BRANCH   3   7
ATOM      7  S1  <0> d          16.999  56.453  12.887  0.00  0.00     0.256 S 
ATOM      8  O3  <0> d          17.402  56.223  11.543  0.00  0.00    -0.201 OA
ATOM      9  O4  <0> d          17.904  56.892  13.889  0.00  0.00    -0.201 OA
BRANCH   7  10
ATOM     10  N1  <0> d          16.340  55.035  13.431  0.00  0.00    -0.324 N 
ATOM     11  H5  <0> d          15.563  55.052  14.011  0.00  0.00     0.169 HD
ATOM     12  H6  <0> d          16.732  54.186  13.172  0.00  0.00     0.169 HD
ENDBRANCH   7  10
ENDBRANCH   3   7
BRANCH   6  13
ATOM     13  C7  <0> d          12.568  60.504  12.682  0.00  0.00     0.209 C 
ATOM     14  O2  <0> d          11.585  60.301  11.985  0.00  0.00    -0.644 OA
ATOM     15  O1  <0> d          12.651  61.533  13.338  0.00  0.00    -0.644 OA
ENDBRANCH   6  13
TORSDOF 3
ENDMDL
MODEL 6
REMARK VINA RESULT:    -6.393      2.935      3.473
REMARK INTER + INTRA:          -7.441
REMARK INTER:                  -7.329
REMARK INTRA:                  -0.112
REMARK UNBOUND:                -0.114
REMARK  3 active torsions:
REMARK  status: ('A' for Active; 'I' for Inactive)
REMARK    1  A    between atoms: C3_3  and  S1_7 
REMARK    2  A    between atoms: C6_6  and  C7_13 
REMARK    3  A    between atoms: S1_7  and  N1_10 
ROOT
ATOM      1  C1  <0> d          16.321  57.493  12.851  0.00  0.00     0.020 A 
ATOM      2  C2  <0> d          16.832  56.228  13.052  0.00  0.00     0.026 A 
ATOM      3  C3  <0> d          15.985  55.135  13.097  0.00  0.00     0.079 A 
ATOM      4  C4  <0> d          14.620  55.302  12.940  0.00  0.00     0.026 A 
ATOM      5  C5  <0> d          14.095  56.561  12.738  0.00  0.00     0.020 A 
ATOM      6  C6  <0> d          14.944  57.669  12.692  0.00  0.00     0.040 A 
ENDROOT
BRANCH   3   7
ATOM      7  S1  <0> d          16.648  53.522  13.353  0.00  0.00     0.256 S 
ATOM      8  O3  <0> d          15.542  52.662  13.592  0.00  0.00    -0.201 OA
ATOM      9  O4  <0> d          17.578  53.294  12.303  0.00  0.00    -0.201 OA
BRANCH   7  10
ATOM     10  N1  <0> d          17.522  53.570  14.759  0.00  0.00    -0.324 N 
ATOM     11  H5  <0> d          17.484  54.355  15.326  0.00  0.00     0.169 HD
ATOM     12  H6  <0> d          18.073  52.814  15.013  0.00  0.00     0.169 HD
ENDBRANCH   7  10
ENDBRANCH   3   7
BRANCH   6  13
ATOM     13  C7  <0> d          14.389  59.019  12.477  0.00  0.00     0.209 C 
ATOM     14  O2  <0> d          14.930  59.991  12.984  0.00  0.00    -0.644 OA
ATOM     15  O1  <0> d          13.386  59.166  11.793  0.00  0.00    -0.644 OA
ENDBRANCH   6  13
TORSDOF 3
ENDMDL
MODEL 7
REMARK VINA RESULT:    -6.366      1.756      2.064
REMARK INTER + INTRA:          -7.411
REMARK INTER:                  -7.297
REMARK INTRA:                  -0.114
REMARK UNBOUND:                -0.114
REMARK  3 active torsions:
REMARK  status: ('A' for Active; 'I' for Inactive)
REMARK    1  A    between atoms: C3_3  and  S1_7 
REMARK    2  A    between atoms: C6_6  and  C7_13 
REMARK    3  A    between atoms: S1_7  and  N1_10 
ROOT
ATOM      1  C1  <0> d          14.816  59.219  12.681  0.00  0.00     0.020 A 
ATOM      2  C2  <0> d          15.816  58.292  12.883  0.00  0.00     0.026 A 
ATOM      3  C3  <0> d          15.569  56.945  12.681  0.00  0.00     0.079 A 
ATOM      4  C4  <0> d          14.317  56.519  12.274  0.00  0.00     0.026 A 
ATOM      5  C5  <0> d          13.307  57.434  12.067  0.00  0.00     0.020 A 
ATOM      6  C6  <0> d          13.550  58.795  12.269  0.00  0.00     0.040 A 
ENDROOT
BRANCH   3   7
ATOM      7  S1  <0> d          16.855  55.768  12.943  0.00  0.00     0.256 S 
ATOM      8  O3  <0> d          18.059  56.509  13.089  0.00  0.00    -0.201 OA
ATOM      9  O4  <0> d          16.386  54.870  13.939  0.00  0.00    -0.201 OA
BRANCH   7  10
ATOM     10  N1  <0> d          17.006  54.892  11.546  0.00  0.00    -0.324 N 
ATOM     11  H5  <0> d          16.532  55.167  10.747  0.00  0.00     0.169 HD
ATOM     12  H6  <0> d          17.568  54.101  11.528  0.00  0.00     0.169 HD
ENDBRANCH   7  10
ENDBRANCH   3   7
BRANCH   6  13
ATOM     13  C7  <0> d          12.473  59.780  12.050  0.00  0.00     0.209 C 
ATOM     14  O2  <0> d          12.504  60.858  12.626  0.00  0.00    -0.644 OA
ATOM     15  O1  <0> d          11.549  59.517  11.293  0.00  0.00    -0.644 OA
ENDBRANCH   6  13
TORSDOF 3
ENDMDL
MODEL 8
REMARK VINA RESULT:    -6.097      2.481      3.274
REMARK INTER + INTRA:          -7.103
REMARK INTER:                  -6.996
REMARK INTRA:                  -0.107
REMARK UNBOUND:                -0.114
REMARK  3 active torsions:
REMARK  status: ('A' for Active; 'I' for Inactive)
REMARK    1  A    between atoms: C3_3  and  S1_7 
REMARK    2  A    between atoms: C6_6  and  C7_13 
REMARK    3  A    between atoms: S1_7  and  N1_10 
ROOT
ATOM      1  C1  <0> d          13.854  56.695  12.757  0.00  0.00     0.020 A 
ATOM      2  C2  <0> d          14.617  55.547  12.791  0.00  0.00     0.026 A 
ATOM      3  C3  <0> d          15.998  55.631  12.850  0.00  0.00     0.079 A 
ATOM      4  C4  <0> d          16.622  56.866  12.876  0.00  0.00     0.026 A 
ATOM      5  C5  <0> d          15.871  58.022  12.843  0.00  0.00     0.020 A 
ATOM      6  C6  <0> d          14.477  57.945  12.784  0.00  0.00     0.040 A 
ENDROOT
BRANCH   3   7
ATOM      7  S1  <0> d          16.964  54.158  12.894  0.00  0.00     0.256 S 
ATOM      8  O3  <0> d          18.114  54.451  13.676  0.00  0.00    -0.201 OA
ATOM      9  O4  <0> d          16.074  53.098  13.215  0.00  0.00    -0.201 OA
BRANCH   7  10
ATOM     10  N1  <0> d          17.500  53.879  11.352  0.00  0.00    -0.324 N 
ATOM     11  H5  <0> d          18.225  53.255  11.196  0.00  0.00     0.169 HD
ATOM     12  H6  <0> d          17.088  54.341  10.605  0.00  0.00     0.169 HD
ENDBRANCH   7  10
ENDBRANCH   3   7
BRANCH   6  13
ATOM     13  C7  <0> d          13.668  59.178  12.747  0.00  0.00     0.209 C 
ATOM     14  O2  <0> d          13.697  59.957  13.689  0.00  0.00    -0.644 OA
ATOM     15  O1  <0> d          12.967  59.421  11.775  0.00  0.00    -0.644 OA
ENDBRANCH   6  13
TORSDOF 3
ENDMDL
MODEL 9
REMARK VINA RESULT:    -6.043      4.886      7.174
REMARK INTER + INTRA:          -7.040
REMARK INTER:                  -6.926
REMARK INTRA:                  -0.114
REMARK UNBOUND:                -0.114
REMARK  3 active torsions:
REMARK  status: ('A' for Active; 'I' for Inactive)
REMARK    1  A    between atoms: C3_3  and  S1_7 
REMARK    2  A    between atoms: C6_6  and  C7_13 
REMARK    3  A    between atoms: S1_7  and  N1_10 
ROOT
ATOM      1  C1  <0> d          15.158  53.917  14.556  0.00  0.00     0.020 A 
ATOM      2  C2  <0> d          15.336  54.834  13.541  0.00  0.00     0.026 A 
ATOM      3  C3  <0> d          16.262  54.594  12.541  0.00  0.00     0.079 A 
ATOM      4  C4  <0> d          17.015  53.432  12.551  0.00  0.00     0.026 A 
ATOM      5  C5  <0> d          16.848  52.507  13.559  0.00  0.00     0.020 A 
ATOM      6  C6  <0> d          15.915  52.743  14.572  0.00  0.00     0.040 A 
ENDROOT
BRANCH   3   7
ATOM      7  S1  <0> d          16.481  55.771  11.248  0.00  0.00     0.256 S 
ATOM      8  O3  <0> d          15.268  56.505  11.158  0.00  0.00    -0.201 OA
ATOM      9  O4  <0> d          17.735  56.398  11.479  0.00  0.00    -0.201 OA
BRANCH   7  10
ATOM     10  N1  <0> d          16.627  54.922   9.834  0.00  0.00    -0.324 N 
ATOM     11  H5  <0> d          15.860  54.815   9.252  0.00  0.00     0.169 HD
ATOM     12  H6  <0> d          17.481  54.532   9.589  0.00  0.00     0.169 HD
ENDBRANCH   7  10
ENDBRANCH   3   7
BRANCH   6  13
ATOM     13  C7  <0> d          15.731  51.757  15.654  0.00  0.00     0.209 C 
ATOM     14  O2  <0> d          16.581  50.901  15.852  0.00  0.00    -0.644 OA
ATOM     15  O1  <0> d          14.728  51.795  16.352  0.00  0.00    -0.644 OA
ENDBRANCH   6  13
TORSDOF 3
ENDMDL
