MODEL 1
REMARK VINA RESULT:    -5.961      0.000      0.000
REMARK INTER + INTRA:          -6.479
REMARK INTER:                  -6.296
REMARK INTRA:                  -0.184
REMARK UNBOUND:                 0.004
REMARK  2 active torsions:
REMARK  status: ('A' for Active; 'I' for Inactive)
REMARK       I    between atoms: C2_2  and  N1_4 
REMARK    1  A    between atoms: C4_6  and  O4_12 
REMARK    2  A    between atoms: C6_8  and  C7_9 
ROOT
ATOM      1  C1  <0> d          15.544  58.928  12.808  0.00  0.00     0.117 C 
ATOM      2  C2  <0> d          16.620  57.940  13.178  0.00  0.00     0.216 C 
ATOM      3  O1  <0> d          17.295  58.121  14.169  0.00  0.00    -0.274 OA
ATOM      4  N1  <0> d          16.833  56.854  12.407  0.00  0.00    -0.335 N 
ATOM      5  C3  <0> d          16.093  56.516  11.177  0.00  0.00     0.158 C 
ATOM      6  C4  <0> d          17.058  55.613  10.371  0.00  0.00     0.138 C 
ATOM      7  C5  <0> d          17.734  54.792  11.501  0.00  0.00     0.070 C 
ATOM      8  C6  <0> d          17.843  55.815  12.650  0.00  0.00     0.190 C 
ENDROOT
BRANCH   8   9
ATOM      9  C7  <0> d          17.573  55.135  13.967  0.00  0.00     0.197 C 
ATOM     10  O2  <0> d          18.443  55.091  14.820  0.00  0.00    -0.646 OA
ATOM     11  O3  <0> d          16.483  54.631  14.180  0.00  0.00    -0.646 OA
ENDBRANCH   8   9
BRANCH   6  12
ATOM     12  O4  <0> d          16.337  54.760   9.479  0.00  0.00    -0.394 OA
ATOM     13  H10 <0> d          15.444  54.540   9.781  0.00  0.00     0.210 HD
ENDBRANCH   6  12
TORSDOF 2
ENDMDL
MODEL 2
REMARK VINA RESULT:    -5.815      1.566      3.447
REMARK INTER + INTRA:          -6.320
REMARK INTER:                  -6.140
REMARK INTRA:                  -0.181
REMARK UNBOUND:                 0.004
REMARK  2 active torsions:
REMARK  status: ('A' for Active; 'I' for Inactive)
REMARK       I    between atoms: C2_2  and  N1_4 
REMARK    1  A    between atoms: C4_6  and  O4_12 
REMARK    2  A    between atoms: C6_8  and  C7_9 
ROOT
ATOM      1  C1  <0> d          14.512  58.713  12.805  0.00  0.00     0.117 C 
ATOM      2  C2  <0> d          14.911  57.381  12.223  0.00  0.00     0.216 C 
ATOM      3  O1  <0> d          14.169  56.810  11.452  0.00  0.00    -0.274 OA
ATOM      4  N1  <0> d          16.091  56.825  12.561  0.00  0.00    -0.335 N 
ATOM      5  C3  <0> d          17.081  57.404  13.487  0.00  0.00     0.158 C 
ATOM      6  C4  <0> d          17.891  56.193  14.010  0.00  0.00     0.138 C 
ATOM      7  C5  <0> d          17.971  55.301  12.743  0.00  0.00     0.070 C 
ATOM      8  C6  <0> d          16.603  55.537  12.070  0.00  0.00     0.190 C 
ENDROOT
BRANCH   8   9
ATOM      9  C7  <0> d          16.771  55.588  10.574  0.00  0.00     0.197 C 
ATOM     10  O2  <0> d          17.430  56.479  10.065  0.00  0.00    -0.646 OA
ATOM     11  O3  <0> d          16.249  54.738   9.872  0.00  0.00    -0.646 OA
ENDBRANCH   8   9
BRANCH   6  12
ATOM     12  O4  <0> d          19.195  56.594  14.437  0.00  0.00    -0.394 OA
ATOM     13  H10 <0> d          19.698  55.894  14.875  0.00  0.00     0.210 HD
ENDBRANCH   6  12
TORSDOF 2
ENDMDL
MODEL 3
REMARK VINA RESULT:    -5.369      2.145      3.518
REMARK INTER + INTRA:          -5.836
REMARK INTER:                  -5.660
REMARK INTRA:                  -0.176
REMARK UNBOUND:                 0.004
REMARK  2 active torsions:
REMARK  status: ('A' for Active; 'I' for Inactive)
REMARK       I    between atoms: C2_2  and  N1_4 
REMARK    1  A    between atoms: C4_6  and  O4_12 
REMARK    2  A    between atoms: C6_8  and  C7_9 
ROOT
ATOM      1  C1  <0> d          15.518  57.386  12.049  0.00  0.00     0.117 C 
ATOM      2  C2  <0> d          15.720  56.016  12.645  0.00  0.00     0.216 C 
ATOM      3  O1  <0> d          14.876  55.158  12.493  0.00  0.00    -0.274 OA
ATOM      4  N1  <0> d          16.839  55.744  13.346  0.00  0.00    -0.335 N 
ATOM      5  C3  <0> d          17.938  56.690  13.611  0.00  0.00     0.158 C 
ATOM      6  C4  <0> d          18.618  56.157  14.896  0.00  0.00     0.138 C 
ATOM      7  C5  <0> d          18.524  54.623  14.685  0.00  0.00     0.070 C 
ATOM      8  C6  <0> d          17.162  54.457  13.978  0.00  0.00     0.190 C 
ENDROOT
BRANCH   8   9
ATOM      9  C7  <0> d          17.259  53.380  12.928  0.00  0.00     0.197 C 
ATOM     10  O2  <0> d          16.510  52.420  12.969  0.00  0.00    -0.646 OA
ATOM     11  O3  <0> d          18.087  53.471  12.037  0.00  0.00    -0.646 OA
ENDBRANCH   8   9
BRANCH   6  12
ATOM     12  O4  <0> d          19.981  56.581  14.967  0.00  0.00    -0.394 OA
ATOM     13  H10 <0> d          20.182  57.130  15.738  0.00  0.00     0.210 HD
ENDBRANCH   6  12
TORSDOF 2
ENDMDL
MODEL 4
REMARK VINA RESULT:    -5.342      2.069      3.694
REMARK INTER + INTRA:          -5.807
REMARK INTER:                  -5.638
REMARK INTRA:                  -0.169
REMARK UNBOUND:                 0.004
REMARK  2 active torsions:
REMARK  status: ('A' for Active; 'I' for Inactive)
REMARK       I    between atoms: C2_2  and  N1_4 
REMARK    1  A    between atoms: C4_6  and  O4_12 
REMARK    2  A    between atoms: C6_8  and  C7_9 
ROOT
ATOM      1  C1  <0> d          18.938  56.900  14.669  0.00  0.00     0.117 C 
ATOM      2  C2  <0> d          17.784  56.571  13.758  0.00  0.00     0.216 C 
ATOM      3  O1  <0> d          17.370  57.403  12.978  0.00  0.00    -0.274 OA
ATOM      4  N1  <0> d          17.210  55.352  13.809  0.00  0.00    -0.335 N 
ATOM      5  C3  <0> d          17.607  54.253  14.708  0.00  0.00     0.158 C 
ATOM      6  C4  <0> d          16.341  53.372  14.839  0.00  0.00     0.138 C 
ATOM      7  C5  <0> d          15.756  53.452  13.404  0.00  0.00     0.070 C 
ATOM      8  C6  <0> d          16.083  54.899  12.981  0.00  0.00     0.190 C 
ENDROOT
BRANCH   8   9
ATOM      9  C7  <0> d          16.471  54.931  11.525  0.00  0.00     0.197 C 
ATOM     10  O2  <0> d          17.380  54.225  11.122  0.00  0.00    -0.646 OA
ATOM     11  O3  <0> d          15.876  55.661  10.751  0.00  0.00    -0.646 OA
ENDBRANCH   8   9
BRANCH   6  12
ATOM     12  O4  <0> d          16.686  52.026  15.177  0.00  0.00    -0.394 OA
ATOM     13  H10 <0> d          16.980  51.914  16.091  0.00  0.00     0.210 HD
ENDBRANCH   6  12
TORSDOF 2
ENDMDL
MODEL 5
REMARK VINA RESULT:    -5.268      2.489      3.622
REMARK INTER + INTRA:          -5.726
REMARK INTER:                  -5.577
REMARK INTRA:                  -0.149
REMARK UNBOUND:                 0.004
REMARK  2 active torsions:
REMARK  status: ('A' for Active; 'I' for Inactive)
REMARK       I    between atoms: C2_2  and  N1_4 
REMARK    1  A    between atoms: C4_6  and  O4_12 
REMARK    2  A    between atoms: C6_8  and  C7_9 
ROOT
ATOM      1  C1  <0> d          15.313  53.117  14.945  0.00  0.00     0.117 C 
ATOM      2  C2  <0> d          16.094  54.293  14.417  0.00  0.00     0.216 C 
ATOM      3  O1  <0> d          17.245  54.460  14.761  0.00  0.00    -0.274 OA
ATOM      4  N1  <0> d          15.513  55.159  13.563  0.00  0.00    -0.335 N 
ATOM      5  C3  <0> d          14.126  55.080  13.069  0.00  0.00     0.158 C 
ATOM      6  C4  <0> d          13.762  56.532  12.674  0.00  0.00     0.138 C 
ATOM      7  C5  <0> d          15.105  57.040  12.084  0.00  0.00     0.070 C 
ATOM      8  C6  <0> d          16.156  56.343  12.974  0.00  0.00     0.190 C 
ENDROOT
BRANCH   8   9
ATOM      9  C7  <0> d          17.335  55.922  12.137  0.00  0.00     0.197 C 
ATOM     10  O2  <0> d          18.463  56.246  12.467  0.00  0.00    -0.646 OA
ATOM     11  O3  <0> d          17.162  55.256  11.129  0.00  0.00    -0.646 OA
ENDBRANCH   8   9
BRANCH   6  12
ATOM     12  O4  <0> d          12.730  56.551  11.686  0.00  0.00    -0.394 OA
ATOM     13  H10 <0> d          12.094  55.826  11.768  0.00  0.00     0.210 HD
ENDBRANCH   6  12
TORSDOF 2
ENDMDL
MODEL 6
REMARK VINA RESULT:    -5.229      2.350      3.123
REMARK INTER + INTRA:          -5.683
REMARK INTER:                  -5.506
REMARK INTRA:                  -0.177
REMARK UNBOUND:                 0.004
REMARK  2 active torsions:
REMARK  status: ('A' for Active; 'I' for Inactive)
REMARK       I    between atoms: C2_2  and  N1_4 
REMARK    1  A    between atoms: C4_6  and  O4_12 
REMARK    2  A    between atoms: C6_8  and  C7_9 
ROOT
ATOM      1  C1  <0> d          18.966  56.647  14.665  0.00  0.00     0.117 C 
ATOM      2  C2  <0> d          18.300  55.314  14.439  0.00  0.00     0.216 C 
ATOM      3  O1  <0> d          18.829  54.297  14.835  0.00  0.00    -0.274 OA
ATOM      4  N1  <0> d          17.116  55.252  13.798  0.00  0.00    -0.335 N 
ATOM      5  C3  <0> d          16.368  56.403  13.261  0.00  0.00     0.158 C 
ATOM      6  C4  <0> d          15.481  55.811  12.138  0.00  0.00     0.138 C 
ATOM      7  C5  <0> d          15.087  54.438  12.743  0.00  0.00     0.070 C 
ATOM      8  C6  <0> d          16.360  54.024  13.512  0.00  0.00     0.190 C 
ENDROOT
BRANCH   8   9
ATOM      9  C7  <0> d          15.979  53.344  14.802  0.00  0.00     0.197 C 
ATOM     10  O2  <0> d          15.278  53.925  15.612  0.00  0.00    -0.646 OA
ATOM     11  O3  <0> d          16.372  52.213  15.034  0.00  0.00    -0.646 OA
ENDBRANCH   8   9
BRANCH   6  12
ATOM     12  O4  <0> d          14.326  56.623  11.916  0.00  0.00    -0.394 OA
ATOM     13  H10 <0> d          13.823  56.382  11.126  0.00  0.00     0.210 HD
ENDBRANCH   6  12
TORSDOF 2
ENDMDL
MODEL 7
REMARK VINA RESULT:    -5.195      1.950      3.789
REMARK INTER + INTRA:          -5.646
REMARK INTER:                  -5.650
REMARK INTRA:                   0.004
REMARK UNBOUND:                 0.004
REMARK  2 active torsions:
REMARK  status: ('A' for Active; 'I' for Inactive)
REMARK       I    between atoms: C2_2  and  N1_4 
REMARK    1  A    between atoms: C4_6  and  O4_12 
REMARK    2  A    between atoms: C6_8  and  C7_9 
ROOT
ATOM      1  C1  <0> d          18.886  57.037  14.639  0.00  0.00     0.117 C 
ATOM      2  C2  <0> d          17.950  56.584  13.548  0.00  0.00     0.216 C 
ATOM      3  O1  <0> d          18.150  55.534  12.975  0.00  0.00    -0.274 OA
ATOM      4  N1  <0> d          16.890  57.345  13.210  0.00  0.00    -0.335 N 
ATOM      5  C3  <0> d          16.533  58.640  13.819  0.00  0.00     0.158 C 
ATOM      6  C4  <0> d          15.695  59.368  12.738  0.00  0.00     0.138 C 
ATOM      7  C5  <0> d          14.893  58.192  12.122  0.00  0.00     0.070 C 
ATOM      8  C6  <0> d          15.901  57.025  12.170  0.00  0.00     0.190 C 
ENDROOT
BRANCH   8   9
ATOM      9  C7  <0> d          15.187  55.745  12.519  0.00  0.00     0.197 C 
ATOM     10  O2  <0> d          14.295  55.752  13.350  0.00  0.00    -0.646 OA
ATOM     11  O3  <0> d          15.500  54.703  11.969  0.00  0.00    -0.646 OA
ENDBRANCH   8   9
BRANCH   6  12
ATOM     12  O4  <0> d          14.820  60.330  13.331  0.00  0.00    -0.394 OA
ATOM     13  H10 <0> d          13.881  60.111  13.248  0.00  0.00     0.210 HD
ENDBRANCH   6  12
TORSDOF 2
ENDMDL
MODEL 8
REMARK VINA RESULT:    -5.193      1.584      2.163
REMARK INTER + INTRA:          -5.644
REMARK INTER:                  -5.460
REMARK INTRA:                  -0.184
REMARK UNBOUND:                 0.004
REMARK  2 active torsions:
REMARK  status: ('A' for Active; 'I' for Inactive)
REMARK       I    between atoms: C2_2  and  N1_4 
REMARK    1  A    between atoms: C4_6  and  O4_12 
REMARK    2  A    between atoms: C6_8  and  C7_9 
ROOT
ATOM      1  C1  <0> d          17.807  57.546  13.883  0.00  0.00     0.117 C 
ATOM      2  C2  <0> d          17.821  56.039  13.915  0.00  0.00     0.216 C 
ATOM      3  O1  <0> d          18.175  55.457  14.919  0.00  0.00    -0.274 OA
ATOM      4  N1  <0> d          17.439  55.338  12.829  0.00  0.00    -0.335 N 
ATOM      5  C3  <0> d          16.993  55.914  11.547  0.00  0.00     0.158 C 
ATOM      6  C4  <0> d          17.274  54.811  10.497  0.00  0.00     0.138 C 
ATOM      7  C5  <0> d          16.930  53.527  11.297  0.00  0.00     0.070 C 
ATOM      8  C6  <0> d          17.405  53.872  12.723  0.00  0.00     0.190 C 
ENDROOT
BRANCH   8   9
ATOM      9  C7  <0> d          16.440  53.309  13.734  0.00  0.00     0.197 C 
ATOM     10  O2  <0> d          15.278  53.678  13.739  0.00  0.00    -0.646 OA
ATOM     11  O3  <0> d          16.821  52.482  14.546  0.00  0.00    -0.646 OA
ENDBRANCH   8   9
BRANCH   6  12
ATOM     12  O4  <0> d          16.416  54.954   9.363  0.00  0.00    -0.394 OA
ATOM     13  H10 <0> d          16.882  54.951   8.515  0.00  0.00     0.210 HD
ENDBRANCH   6  12
TORSDOF 2
ENDMDL
MODEL 9
REMARK VINA RESULT:    -5.083      2.395      3.609
REMARK INTER + INTRA:          -5.524
REMARK INTER:                  -5.496
REMARK INTRA:                  -0.029
REMARK UNBOUND:                 0.004
REMARK  2 active torsions:
REMARK  status: ('A' for Active; 'I' for Inactive)
REMARK       I    between atoms: C2_2  and  N1_4 
REMARK    1  A    between atoms: C4_6  and  O4_12 
REMARK    2  A    between atoms: C6_8  and  C7_9 
ROOT
ATOM      1  C1  <0> d          13.349  56.295  12.800  0.00  0.00     0.117 C 
ATOM      2  C2  <0> d          14.762  55.884  12.475  0.00  0.00     0.216 C 
ATOM      3  O1  <0> d          15.333  56.376  11.524  0.00  0.00    -0.274 OA
ATOM      4  N1  <0> d          15.392  54.970  13.240  0.00  0.00    -0.335 N 
ATOM      5  C3  <0> d          14.816  54.291  14.415  0.00  0.00     0.158 C 
ATOM      6  C4  <0> d          15.617  52.972  14.542  0.00  0.00     0.138 C 
ATOM      7  C5  <0> d          17.041  53.432  14.134  0.00  0.00     0.070 C 
ATOM      8  C6  <0> d          16.763  54.480  13.037  0.00  0.00     0.190 C 
ENDROOT
BRANCH   8   9
ATOM      9  C7  <0> d          17.738  55.622  13.162  0.00  0.00     0.197 C 
ATOM     10  O2  <0> d          18.237  56.109  12.162  0.00  0.00    -0.646 OA
ATOM     11  O3  <0> d          18.027  56.059  14.263  0.00  0.00    -0.646 OA
ENDBRANCH   8   9
BRANCH   6  12
ATOM     12  O4  <0> d          15.600  52.490  15.888  0.00  0.00    -0.394 OA
ATOM     13  H10 <0> d          14.732  52.181  16.184  0.00  0.00     0.210 HD
ENDBRANCH   6  12
TORSDOF 2
ENDMDL
