MODEL 1
REMARK VINA RESULT:    -8.403      0.000      0.000
REMARK INTER + INTRA:          -8.403
REMARK INTER:                  -8.403
REMARK INTRA:                   0.000
REMARK UNBOUND:                 0.000
REMARK  0 active torsions:
REMARK  status: ('A' for Active; 'I' for Inactive)
ROOT
ATOM      1  C1  <0> d          11.017  61.108  11.831  0.00  0.00     0.052 C 
ATOM      2  C2  <0> d          12.085  60.058  12.005  0.00  0.00    -0.007 A 
ATOM      3  C3  <0> d          11.848  58.803  11.604  0.00  0.00     0.066 A 
ATOM      4  C4  <0> d          12.872  57.752  11.759  0.00  0.00     0.183 A 
ATOM      5  O1  <0> d          12.641  56.617  11.389  0.00  0.00    -0.288 OA
ATOM      6  C5  <0> d          14.179  58.083  12.365  0.00  0.00     0.028 A 
ATOM      7  C6  <0> d          15.159  57.112  12.523  0.00  0.00     0.016 A 
ATOM      8  C7  <0> d          16.377  57.450  13.094  0.00  0.00     0.001 A 
ATOM      9  C8  <0> d          16.621  58.745  13.509  0.00  0.00     0.001 A 
ATOM     10  C9  <0> d          15.652  59.724  13.359  0.00  0.00     0.016 A 
ATOM     11  C10 <0> d          14.427  59.402  12.788  0.00  0.00     0.029 A 
ATOM     12  C11 <0> d          13.378  60.430  12.610  0.00  0.00     0.189 A 
ATOM     13  O2  <0> d          13.580  61.573  12.964  0.00  0.00    -0.287 OA
ENDROOT
TORSDOF 0
ENDMDL
MODEL 2
REMARK VINA RESULT:    -8.251      1.386      3.832
REMARK INTER + INTRA:          -8.251
REMARK INTER:                  -8.251
REMARK INTRA:                   0.000
REMARK UNBOUND:                 0.000
REMARK  0 active torsions:
REMARK  status: ('A' for Active; 'I' for Inactive)
ROOT
ATOM      1  C1  <0> d          17.166  56.376  13.099  0.00  0.00     0.052 C 
ATOM      2  C2  <0> d          15.879  57.110  12.818  0.00  0.00    -0.007 A 
ATOM      3  C3  <0> d          14.835  56.441  12.312  0.00  0.00     0.066 A 
ATOM      4  C4  <0> d          13.561  57.130  12.027  0.00  0.00     0.183 A 
ATOM      5  O1  <0> d          12.623  56.509  11.568  0.00  0.00    -0.288 OA
ATOM      6  C5  <0> d          13.431  58.576  12.301  0.00  0.00     0.028 A 
ATOM      7  C6  <0> d          12.243  59.248  12.041  0.00  0.00     0.016 A 
ATOM      8  C7  <0> d          12.146  60.605  12.308  0.00  0.00     0.001 A 
ATOM      9  C8  <0> d          13.224  61.295  12.829  0.00  0.00     0.001 A 
ATOM     10  C9  <0> d          14.416  60.639  13.094  0.00  0.00     0.016 A 
ATOM     11  C10 <0> d          14.528  59.279  12.832  0.00  0.00     0.029 A 
ATOM     12  C11 <0> d          15.786  58.552  13.111  0.00  0.00     0.189 A 
ATOM     13  O2  <0> d          16.740  59.144  13.574  0.00  0.00    -0.287 OA
ENDROOT
TORSDOF 0
ENDMDL
MODEL 3
REMARK VINA RESULT:    -7.953      2.629      5.640
REMARK INTER + INTRA:          -7.953
REMARK INTER:                  -7.953
REMARK INTRA:                   0.000
REMARK UNBOUND:                 0.000
REMARK  0 active torsions:
REMARK  status: ('A' for Active; 'I' for Inactive)
ROOT
ATOM      1  C1  <0> d          17.935  53.724  12.776  0.00  0.00     0.052 C 
ATOM      2  C2  <0> d          17.495  55.146  13.007  0.00  0.00    -0.007 A 
ATOM      3  C3  <0> d          18.250  55.957  13.760  0.00  0.00     0.066 A 
ATOM      4  C4  <0> d          17.847  57.356  14.005  0.00  0.00     0.183 A 
ATOM      5  O1  <0> d          18.544  58.079  14.690  0.00  0.00    -0.288 OA
ATOM      6  C5  <0> d          16.594  57.873  13.416  0.00  0.00     0.028 A 
ATOM      7  C6  <0> d          16.193  59.186  13.632  0.00  0.00     0.016 A 
ATOM      8  C7  <0> d          15.013  59.647  13.067  0.00  0.00     0.001 A 
ATOM      9  C8  <0> d          14.234  58.810  12.291  0.00  0.00     0.001 A 
ATOM     10  C9  <0> d          14.621  57.499  12.067  0.00  0.00     0.016 A 
ATOM     11  C10 <0> d          15.801  57.021  12.626  0.00  0.00     0.029 A 
ATOM     12  C11 <0> d          16.241  55.628  12.397  0.00  0.00     0.189 A 
ATOM     13  O2  <0> d          15.569  54.882  11.713  0.00  0.00    -0.287 OA
ENDROOT
TORSDOF 0
ENDMDL
MODEL 4
REMARK VINA RESULT:    -7.911      1.918      4.359
REMARK INTER + INTRA:          -7.911
REMARK INTER:                  -7.911
REMARK INTRA:                   0.000
REMARK UNBOUND:                 0.000
REMARK  0 active torsions:
REMARK  status: ('A' for Active; 'I' for Inactive)
ROOT
ATOM      1  C1  <0> d          18.533  56.079  13.958  0.00  0.00     0.052 C 
ATOM      2  C2  <0> d          17.185  56.592  13.520  0.00  0.00    -0.007 A 
ATOM      3  C3  <0> d          16.265  55.730  13.067  0.00  0.00     0.066 A 
ATOM      4  C4  <0> d          14.936  56.200  12.631  0.00  0.00     0.183 A 
ATOM      5  O1  <0> d          14.113  55.404  12.223  0.00  0.00    -0.288 OA
ATOM      6  C5  <0> d          14.609  57.640  12.694  0.00  0.00     0.028 A 
ATOM      7  C6  <0> d          13.365  58.108  12.290  0.00  0.00     0.016 A 
ATOM      8  C7  <0> d          13.084  59.464  12.359  0.00  0.00     0.001 A 
ATOM      9  C8  <0> d          14.033  60.353  12.826  0.00  0.00     0.001 A 
ATOM     10  C9  <0> d          15.278  59.902  13.233  0.00  0.00     0.016 A 
ATOM     11  C10 <0> d          15.576  58.546  13.170  0.00  0.00     0.029 A 
ATOM     12  C11 <0> d          16.895  58.036  13.603  0.00  0.00     0.189 A 
ATOM     13  O2  <0> d          17.737  58.805  14.021  0.00  0.00    -0.287 OA
ENDROOT
TORSDOF 0
ENDMDL
MODEL 5
REMARK VINA RESULT:    -7.868      1.553      4.556
REMARK INTER + INTRA:          -7.868
REMARK INTER:                  -7.868
REMARK INTRA:                   0.000
REMARK UNBOUND:                 0.000
REMARK  0 active torsions:
REMARK  status: ('A' for Active; 'I' for Inactive)
ROOT
ATOM      1  C1  <0> d          15.465  54.755  12.572  0.00  0.00     0.052 C 
ATOM      2  C2  <0> d          15.279  56.245  12.707  0.00  0.00    -0.007 A 
ATOM      3  C3  <0> d          16.300  57.002  13.131  0.00  0.00     0.066 A 
ATOM      4  C4  <0> d          16.151  58.463  13.274  0.00  0.00     0.183 A 
ATOM      5  O1  <0> d          17.087  59.135  13.660  0.00  0.00    -0.288 OA
ATOM      6  C5  <0> d          14.861  59.105  12.946  0.00  0.00     0.028 A 
ATOM      7  C6  <0> d          14.695  60.479  13.072  0.00  0.00     0.016 A 
ATOM      8  C7  <0> d          13.474  61.057  12.757  0.00  0.00     0.001 A 
ATOM      9  C8  <0> d          12.421  60.275  12.320  0.00  0.00     0.001 A 
ATOM     10  C9  <0> d          12.572  58.904  12.189  0.00  0.00     0.016 A 
ATOM     11  C10 <0> d          13.789  58.310  12.501  0.00  0.00     0.029 A 
ATOM     12  C11 <0> d          13.979  56.849  12.364  0.00  0.00     0.189 A 
ATOM     13  O2  <0> d          13.064  56.151  11.976  0.00  0.00    -0.287 OA
ENDROOT
TORSDOF 0
ENDMDL
MODEL 6
REMARK VINA RESULT:    -7.806      1.936      2.964
REMARK INTER + INTRA:          -7.806
REMARK INTER:                  -7.806
REMARK INTRA:                   0.000
REMARK UNBOUND:                 0.000
REMARK  0 active torsions:
REMARK  status: ('A' for Active; 'I' for Inactive)
ROOT
ATOM      1  C1  <0> d          14.435  60.555  13.151  0.00  0.00     0.052 C 
ATOM      2  C2  <0> d          14.701  59.082  12.973  0.00  0.00    -0.007 A 
ATOM      3  C3  <0> d          13.704  58.272  12.593  0.00  0.00     0.066 A 
ATOM      4  C4  <0> d          13.931  56.826  12.409  0.00  0.00     0.183 A 
ATOM      5  O1  <0> d          13.016  56.105  12.063  0.00  0.00    -0.288 OA
ATOM      6  C5  <0> d          15.275  56.257  12.646  0.00  0.00     0.028 A 
ATOM      7  C6  <0> d          15.515  54.899  12.480  0.00  0.00     0.016 A 
ATOM      8  C7  <0> d          16.785  54.391  12.708  0.00  0.00     0.001 A 
ATOM      9  C8  <0> d          17.813  55.227  13.102  0.00  0.00     0.001 A 
ATOM     10  C9  <0> d          17.589  56.583  13.272  0.00  0.00     0.016 A 
ATOM     11  C10 <0> d          16.322  57.108  13.046  0.00  0.00     0.029 A 
ATOM     12  C11 <0> d          16.057  58.553  13.214  0.00  0.00     0.189 A 
ATOM     13  O2  <0> d          16.952  59.301  13.554  0.00  0.00    -0.287 OA
ENDROOT
TORSDOF 0
ENDMDL
MODEL 7
REMARK VINA RESULT:    -7.796      2.135      4.008
REMARK INTER + INTRA:          -7.796
REMARK INTER:                  -7.796
REMARK INTRA:                   0.000
REMARK UNBOUND:                 0.000
REMARK  0 active torsions:
REMARK  status: ('A' for Active; 'I' for Inactive)
ROOT
ATOM      1  C1  <0> d          13.302  59.542  12.451  0.00  0.00     0.052 C 
ATOM      2  C2  <0> d          14.500  58.666  12.717  0.00  0.00    -0.007 A 
ATOM      3  C3  <0> d          15.576  59.186  13.321  0.00  0.00     0.066 A 
ATOM      4  C4  <0> d          16.765  58.356  13.597  0.00  0.00     0.183 A 
ATOM      5  O1  <0> d          17.734  58.844  14.146  0.00  0.00    -0.288 OA
ATOM      6  C5  <0> d          16.773  56.932  13.204  0.00  0.00     0.028 A 
ATOM      7  C6  <0> d          17.879  56.129  13.452  0.00  0.00     0.016 A 
ATOM      8  C7  <0> d          17.862  54.795  13.073  0.00  0.00     0.001 A 
ATOM      9  C8  <0> d          16.751  54.259  12.450  0.00  0.00     0.001 A 
ATOM     10  C9  <0> d          15.640  55.047  12.195  0.00  0.00     0.016 A 
ATOM     11  C10 <0> d          15.642  56.386  12.569  0.00  0.00     0.029 A 
ATOM     12  C11 <0> d          14.468  57.248  12.315  0.00  0.00     0.189 A 
ATOM     13  O2  <0> d          13.482  56.789  11.773  0.00  0.00    -0.287 OA
ENDROOT
TORSDOF 0
ENDMDL
MODEL 8
REMARK VINA RESULT:    -7.703      1.644      2.511
REMARK INTER + INTRA:          -7.703
REMARK INTER:                  -7.703
REMARK INTRA:                   0.000
REMARK UNBOUND:                 0.000
REMARK  0 active torsions:
REMARK  status: ('A' for Active; 'I' for Inactive)
ROOT
ATOM      1  C1  <0> d          12.907  59.431  12.026  0.00  0.00     0.052 C 
ATOM      2  C2  <0> d          13.985  58.449  12.407  0.00  0.00    -0.007 A 
ATOM      3  C3  <0> d          13.782  57.139  12.213  0.00  0.00     0.066 A 
ATOM      4  C4  <0> d          14.817  56.151  12.575  0.00  0.00     0.183 A 
ATOM      5  O1  <0> d          14.618  54.966  12.393  0.00  0.00    -0.288 OA
ATOM      6  C5  <0> d          16.096  56.607  13.160  0.00  0.00     0.028 A 
ATOM      7  C6  <0> d          17.086  55.698  13.509  0.00  0.00     0.016 A 
ATOM      8  C7  <0> d          18.277  56.152  14.055  0.00  0.00     0.001 A 
ATOM      9  C8  <0> d          18.485  57.503  14.256  0.00  0.00     0.001 A 
ATOM     10  C9  <0> d          17.507  58.423  13.912  0.00  0.00     0.016 A 
ATOM     11  C10 <0> d          16.308  57.983  13.364  0.00  0.00     0.029 A 
ATOM     12  C11 <0> d          15.249  58.943  12.983  0.00  0.00     0.189 A 
ATOM     13  O2  <0> d          15.420  60.135  13.148  0.00  0.00    -0.287 OA
ENDROOT
TORSDOF 0
ENDMDL
