MODEL 1
REMARK VINA RESULT:    -8.253      0.000      0.000
REMARK INTER + INTRA:          -8.253
REMARK INTER:                  -8.253
REMARK INTRA:                   0.000
REMARK UNBOUND:                 0.000
REMARK  0 active torsions:
REMARK  status: ('A' for Active; 'I' for Inactive)
ROOT
ATOM      1  C1  <0> d          17.833  54.816  14.365  0.00  0.00     0.021 C 
ATOM      2  C2  <0> d          17.185  54.988  12.989  0.00  0.00     0.088 C 
ATOM      3  C3  <0> d          17.049  56.488  12.643  0.00  0.00     0.033 C 
ATOM      4  C4  <0> d          17.185  57.310  13.925  0.00  0.00     0.010 C 
ATOM      5  C5  <0> d          17.036  58.787  13.562  0.00  0.00     0.018 C 
ATOM      6  C6  <0> d          15.671  59.089  13.031  0.00  0.00     0.000 C 
ATOM      7  C7  <0> d          14.838  59.757  14.096  0.00  0.00    -0.009 C 
ATOM      8  C8  <0> d          13.517  59.892  13.874  0.00  0.00     0.052 C 
ATOM      9  C9  <0> d          13.032  59.326  12.586  0.00  0.00     0.177 C 
ATOM     10  O1  <0> d          12.201  59.885  11.896  0.00  0.00    -0.288 OA
ATOM     11  C10 <0> d          13.640  58.023  12.209  0.00  0.00    -0.006 C 
ATOM     12  C11 <0> d          14.967  57.905  12.455  0.00  0.00    -0.029 C 
ATOM     13  C12 <0> d          15.613  56.599  12.113  0.00  0.00     0.167 C 
ATOM     14  O2  <0> d          14.892  55.505  12.755  0.00  0.00    -0.311 OA
ATOM     15  C13 <0> d          15.731  54.487  12.997  0.00  0.00     0.263 C 
ATOM     16  O3  <0> d          15.396  53.342  13.188  0.00  0.00    -0.265 OA
ATOM     17  C14 <0> d          12.834  56.908  11.596  0.00  0.00     0.052 C 
ATOM     18  C15 <0> d          15.844  60.104  11.899  0.00  0.00     0.025 C 
ENDROOT
TORSDOF 0
ENDMDL
MODEL 2
REMARK VINA RESULT:    -7.892      9.264     12.457
REMARK INTER + INTRA:          -7.892
REMARK INTER:                  -7.892
REMARK INTRA:                   0.000
REMARK UNBOUND:                 0.000
REMARK  0 active torsions:
REMARK  status: ('A' for Active; 'I' for Inactive)
ROOT
ATOM      1  C1  <0> d          12.568  50.055  19.542  0.00  0.00     0.021 C 
ATOM      2  C2  <0> d          13.188  49.122  18.500  0.00  0.00     0.088 C 
ATOM      3  C3  <0> d          13.927  47.955  19.194  0.00  0.00     0.033 C 
ATOM      4  C4  <0> d          14.183  48.326  20.655  0.00  0.00     0.010 C 
ATOM      5  C5  <0> d          14.924  47.166  21.318  0.00  0.00     0.018 C 
ATOM      6  C6  <0> d          16.274  46.955  20.711  0.00  0.00     0.000 C 
ATOM      7  C7  <0> d          17.341  47.526  21.612  0.00  0.00    -0.009 C 
ATOM      8  C8  <0> d          18.590  47.633  21.123  0.00  0.00     0.052 C 
ATOM      9  C9  <0> d          18.758  47.188  19.713  0.00  0.00     0.177 C 
ATOM     10  O1  <0> d          19.725  46.555  19.335  0.00  0.00    -0.288 OA
ATOM     11  C10 <0> d          17.651  47.580  18.801  0.00  0.00    -0.006 C 
ATOM     12  C11 <0> d          16.403  47.477  19.318  0.00  0.00    -0.029 C 
ATOM     13  C12 <0> d          15.262  47.885  18.441  0.00  0.00     0.167 C 
ATOM     14  O2  <0> d          15.480  49.238  17.939  0.00  0.00    -0.311 OA
ATOM     15  C13 <0> d          14.301  49.835  17.712  0.00  0.00     0.263 C 
ATOM     16  O3  <0> d          14.134  50.790  16.992  0.00  0.00    -0.265 OA
ATOM     17  C14 <0> d          17.901  48.058  17.394  0.00  0.00     0.052 C 
ATOM     18  C15 <0> d          16.507  45.444  20.648  0.00  0.00     0.025 C 
ENDROOT
TORSDOF 0
ENDMDL
MODEL 3
REMARK VINA RESULT:    -7.475      1.923      5.500
REMARK INTER + INTRA:          -7.475
REMARK INTER:                  -7.475
REMARK INTRA:                   0.000
REMARK UNBOUND:                 0.000
REMARK  0 active torsions:
REMARK  status: ('A' for Active; 'I' for Inactive)
ROOT
ATOM      1  C1  <0> d          13.098  58.194  12.128  0.00  0.00     0.021 C 
ATOM      2  C2  <0> d          14.572  58.527  11.884  0.00  0.00     0.088 C 
ATOM      3  C3  <0> d          15.402  57.230  11.752  0.00  0.00     0.033 C 
ATOM      4  C4  <0> d          14.601  56.064  12.332  0.00  0.00     0.010 C 
ATOM      5  C5  <0> d          15.444  54.796  12.201  0.00  0.00     0.018 C 
ATOM      6  C6  <0> d          16.693  54.877  13.021  0.00  0.00     0.000 C 
ATOM      7  C7  <0> d          16.534  54.070  14.285  0.00  0.00    -0.009 C 
ATOM      8  C8  <0> d          17.465  54.213  15.247  0.00  0.00     0.052 C 
ATOM      9  C9  <0> d          18.542  55.194  14.943  0.00  0.00     0.177 C 
ATOM     10  O1  <0> d          19.709  54.993  15.222  0.00  0.00    -0.288 OA
ATOM     11  C10 <0> d          18.082  56.438  14.273  0.00  0.00    -0.006 C 
ATOM     12  C11 <0> d          17.135  56.272  13.318  0.00  0.00    -0.029 C 
ATOM     13  C12 <0> d          16.626  57.503  12.637  0.00  0.00     0.167 C 
ATOM     14  O2  <0> d          16.162  58.465  13.630  0.00  0.00    -0.311 OA
ATOM     15  C13 <0> d          15.190  59.226  13.108  0.00  0.00     0.263 C 
ATOM     16  O3  <0> d          14.850  60.306  13.531  0.00  0.00    -0.265 OA
ATOM     17  C14 <0> d          18.631  57.795  14.632  0.00  0.00     0.052 C 
ATOM     18  C15 <0> d          17.807  54.216  12.207  0.00  0.00     0.025 C 
ENDROOT
TORSDOF 0
ENDMDL
MODEL 4
REMARK VINA RESULT:    -7.319      8.482     11.230
REMARK INTER + INTRA:          -7.319
REMARK INTER:                  -7.319
REMARK INTRA:                   0.000
REMARK UNBOUND:                 0.000
REMARK  0 active torsions:
REMARK  status: ('A' for Active; 'I' for Inactive)
ROOT
ATOM      1  C1  <0> d          15.784  45.202  21.068  0.00  0.00     0.021 C 
ATOM      2  C2  <0> d          16.356  46.621  21.067  0.00  0.00     0.088 C 
ATOM      3  C3  <0> d          15.289  47.631  20.587  0.00  0.00     0.033 C 
ATOM      4  C4  <0> d          14.178  46.874  19.860  0.00  0.00     0.010 C 
ATOM      5  C5  <0> d          13.142  47.890  19.383  0.00  0.00     0.018 C 
ATOM      6  C6  <0> d          13.716  48.833  18.374  0.00  0.00     0.000 C 
ATOM      7  C7  <0> d          13.270  48.441  16.988  0.00  0.00    -0.009 C 
ATOM      8  C8  <0> d          13.872  49.033  15.939  0.00  0.00     0.052 C 
ATOM      9  C9  <0> d          14.946  50.001  16.290  0.00  0.00     0.177 C 
ATOM     10  O1  <0> d          15.092  51.058  15.706  0.00  0.00    -0.288 OA
ATOM     11  C10 <0> d          15.827  49.575  17.409  0.00  0.00    -0.006 C 
ATOM     12  C11 <0> d          15.201  48.970  18.448  0.00  0.00    -0.029 C 
ATOM     13  C12 <0> d          16.056  48.504  19.584  0.00  0.00     0.167 C 
ATOM     14  O2  <0> d          17.125  47.647  19.083  0.00  0.00    -0.311 OA
ATOM     15  C13 <0> d          17.480  46.763  20.026  0.00  0.00     0.263 C 
ATOM     16  O3  <0> d          18.531  46.168  20.060  0.00  0.00    -0.265 OA
ATOM     17  C14 <0> d          17.316  49.802  17.390  0.00  0.00     0.052 C 
ATOM     18  C15 <0> d          13.123  50.214  18.660  0.00  0.00     0.025 C 
ENDROOT
TORSDOF 0
ENDMDL
MODEL 5
REMARK VINA RESULT:    -7.290      8.610     12.128
REMARK INTER + INTRA:          -7.290
REMARK INTER:                  -7.290
REMARK INTRA:                   0.000
REMARK UNBOUND:                 0.000
REMARK  0 active torsions:
REMARK  status: ('A' for Active; 'I' for Inactive)
ROOT
ATOM      1  C1  <0> d          13.458  50.523  16.947  0.00  0.00     0.021 C 
ATOM      2  C2  <0> d          14.463  49.477  16.459  0.00  0.00     0.088 C 
ATOM      3  C3  <0> d          14.479  48.261  17.413  0.00  0.00     0.033 C 
ATOM      4  C4  <0> d          13.840  48.662  18.743  0.00  0.00     0.010 C 
ATOM      5  C5  <0> d          13.877  47.451  19.673  0.00  0.00     0.018 C 
ATOM      6  C6  <0> d          15.280  47.051  20.004  0.00  0.00     0.000 C 
ATOM      7  C7  <0> d          15.642  47.528  21.388  0.00  0.00    -0.009 C 
ATOM      8  C8  <0> d          16.933  47.462  21.763  0.00  0.00     0.052 C 
ATOM      9  C9  <0> d          17.865  46.939  20.727  0.00  0.00     0.177 C 
ATOM     10  O1  <0> d          18.777  46.178  20.990  0.00  0.00    -0.288 OA
ATOM     11  C10 <0> d          17.597  47.421  19.347  0.00  0.00    -0.006 C 
ATOM     12  C11 <0> d          16.290  47.493  18.996  0.00  0.00    -0.029 C 
ATOM     13  C12 <0> d          15.977  47.997  17.623  0.00  0.00     0.167 C 
ATOM     14  O2  <0> d          16.617  49.290  17.410  0.00  0.00    -0.311 OA
ATOM     15  C13 <0> d          15.902  50.015  16.538  0.00  0.00     0.263 C 
ATOM     16  O3  <0> d          16.325  50.951  15.901  0.00  0.00    -0.265 OA
ATOM     17  C14 <0> d          18.705  47.804  18.401  0.00  0.00     0.052 C 
ATOM     18  C15 <0> d          15.317  45.522  20.036  0.00  0.00     0.025 C 
ENDROOT
TORSDOF 0
ENDMDL
MODEL 6
REMARK VINA RESULT:    -7.015      9.593     11.195
REMARK INTER + INTRA:          -7.015
REMARK INTER:                  -7.015
REMARK INTRA:                   0.000
REMARK UNBOUND:                 0.000
REMARK  0 active torsions:
REMARK  status: ('A' for Active; 'I' for Inactive)
ROOT
ATOM      1  C1  <0> d          19.785  48.943  18.779  0.00  0.00     0.021 C 
ATOM      2  C2  <0> d          18.965  47.663  18.605  0.00  0.00     0.088 C 
ATOM      3  C3  <0> d          17.709  47.942  17.749  0.00  0.00     0.033 C 
ATOM      4  C4  <0> d          17.450  49.448  17.720  0.00  0.00     0.010 C 
ATOM      5  C5  <0> d          16.199  49.700  16.879  0.00  0.00     0.018 C 
ATOM      6  C6  <0> d          14.983  49.092  17.503  0.00  0.00     0.000 C 
ATOM      7  C7  <0> d          14.162  50.160  18.183  0.00  0.00    -0.009 C 
ATOM      8  C8  <0> d          13.159  49.767  18.990  0.00  0.00     0.052 C 
ATOM      9  C9  <0> d          13.002  48.295  19.134  0.00  0.00     0.177 C 
ATOM     10  O1  <0> d          11.914  47.751  19.160  0.00  0.00    -0.288 OA
ATOM     11  C10 <0> d          14.278  47.540  19.244  0.00  0.00    -0.006 C 
ATOM     12  C11 <0> d          15.278  47.961  18.432  0.00  0.00    -0.029 C 
ATOM     13  C12 <0> d          16.587  47.243  18.530  0.00  0.00     0.167 C 
ATOM     14  O2  <0> d          17.046  47.233  19.914  0.00  0.00    -0.311 OA
ATOM     15  C13 <0> d          18.386  47.191  19.950  0.00  0.00     0.263 C 
ATOM     16  O3  <0> d          19.044  46.830  20.897  0.00  0.00    -0.265 OA
ATOM     17  C14 <0> d          14.448  46.384  20.195  0.00  0.00     0.052 C 
ATOM     18  C15 <0> d          14.128  48.529  16.366  0.00  0.00     0.025 C 
ENDROOT
TORSDOF 0
ENDMDL
MODEL 7
REMARK VINA RESULT:    -6.714     11.697     13.971
REMARK INTER + INTRA:          -6.714
REMARK INTER:                  -6.714
REMARK INTRA:                   0.000
REMARK UNBOUND:                 0.000
REMARK  0 active torsions:
REMARK  status: ('A' for Active; 'I' for Inactive)
ROOT
ATOM      1  C1  <0> d          15.013  47.890  18.410  0.00  0.00     0.021 C 
ATOM      2  C2  <0> d          15.508  47.620  19.833  0.00  0.00     0.088 C 
ATOM      3  C3  <0> d          16.977  48.073  19.986  0.00  0.00     0.033 C 
ATOM      4  C4  <0> d          17.598  48.230  18.598  0.00  0.00     0.010 C 
ATOM      5  C5  <0> d          19.052  48.666  18.773  0.00  0.00     0.018 C 
ATOM      6  C6  <0> d          19.864  47.616  19.463  0.00  0.00     0.000 C 
ATOM      7  C7  <0> d          20.707  46.871  18.459  0.00  0.00    -0.009 C 
ATOM      8  C8  <0> d          21.324  45.745  18.862  0.00  0.00     0.052 C 
ATOM      9  C9  <0> d          21.067  45.356  20.275  0.00  0.00     0.177 C 
ATOM     10  O1  <0> d          21.937  44.916  21.003  0.00  0.00    -0.288 OA
ATOM     11  C10 <0> d          19.664  45.544  20.729  0.00  0.00    -0.006 C 
ATOM     12  C11 <0> d          19.058  46.677  20.299  0.00  0.00    -0.029 C 
ATOM     13  C12 <0> d          17.636  46.892  20.713  0.00  0.00     0.167 C 
ATOM     14  O2  <0> d          16.831  45.732  20.347  0.00  0.00    -0.311 OA
ATOM     15  C13 <0> d          15.565  46.109  20.120  0.00  0.00     0.263 C 
ATOM     16  O3  <0> d          14.606  45.374  20.142  0.00  0.00    -0.265 OA
ATOM     17  C14 <0> d          18.962  44.541  21.607  0.00  0.00     0.052 C 
ATOM     18  C15 <0> d          20.829  48.341  20.404  0.00  0.00     0.025 C 
ENDROOT
TORSDOF 0
ENDMDL
MODEL 8
REMARK VINA RESULT:    -6.540      9.955     12.629
REMARK INTER + INTRA:          -6.540
REMARK INTER:                  -6.540
REMARK INTRA:                   0.000
REMARK UNBOUND:                 0.000
REMARK  0 active torsions:
REMARK  status: ('A' for Active; 'I' for Inactive)
ROOT
ATOM      1  C1  <0> d          20.583  44.625  20.403  0.00  0.00     0.021 C 
ATOM      2  C2  <0> d          20.617  46.153  20.323  0.00  0.00     0.088 C 
ATOM      3  C3  <0> d          19.291  46.749  20.849  0.00  0.00     0.033 C 
ATOM      4  C4  <0> d          18.225  45.654  20.865  0.00  0.00     0.010 C 
ATOM      5  C5  <0> d          16.922  46.266  21.376  0.00  0.00     0.018 C 
ATOM      6  C6  <0> d          16.406  47.321  20.448  0.00  0.00     0.000 C 
ATOM      7  C7  <0> d          15.269  46.772  19.623  0.00  0.00    -0.009 C 
ATOM      8  C8  <0> d          14.836  47.503  18.579  0.00  0.00     0.052 C 
ATOM      9  C9  <0> d          15.571  48.776  18.350  0.00  0.00     0.177 C 
ATOM     10  O1  <0> d          15.012  49.809  18.035  0.00  0.00    -0.288 OA
ATOM     11  C10 <0> d          17.044  48.687  18.535  0.00  0.00    -0.006 C 
ATOM     12  C11 <0> d          17.457  47.936  19.584  0.00  0.00    -0.029 C 
ATOM     13  C12 <0> d          18.932  47.800  19.790  0.00  0.00     0.167 C 
ATOM     14  O2  <0> d          19.565  47.327  18.564  0.00  0.00    -0.311 OA
ATOM     15  C13 <0> d          20.670  46.629  18.861  0.00  0.00     0.263 C 
ATOM     16  O3  <0> d          21.579  46.410  18.096  0.00  0.00    -0.265 OA
ATOM     17  C14 <0> d          18.012  49.386  17.617  0.00  0.00     0.052 C 
ATOM     18  C15 <0> d          15.827  48.439  21.317  0.00  0.00     0.025 C 
ENDROOT
TORSDOF 0
ENDMDL
