MODEL 1
REMARK VINA RESULT:    -7.030      0.000      0.000
REMARK INTER + INTRA:          -8.029
REMARK INTER:                  -8.357
REMARK INTRA:                   0.328
REMARK UNBOUND:                 0.234
REMARK  3 active torsions:
REMARK  status: ('A' for Active; 'I' for Inactive)
REMARK    1  A    between atoms: C5_1  and  O3_8 
REMARK    2  A    between atoms: O3_8  and  C2_9 
REMARK    3  A    between atoms: C2_9  and  C4_12 
ROOT
ATOM      1  C5  <0> d          15.942  57.199  12.420  0.00  0.00     0.070 A 
ATOM      2  C6  <0> d          16.464  58.262  13.144  0.00  0.00     0.038 A 
ATOM      3  C7  <0> d          15.648  59.317  13.504  0.00  0.00     0.026 A 
ATOM      4  C8  <0> d          14.312  59.315  13.144  0.00  0.00     0.034 A 
ATOM      5  C9  <0> d          13.790  58.257  12.421  0.00  0.00     0.026 A 
ATOM      6  C10 <0> d          14.604  57.202  12.054  0.00  0.00     0.038 A 
ATOM      7 Cl1  <0> d          13.290  60.642  13.598  0.00  0.00    -0.084 Cl
ENDROOT
BRANCH   1   8
ATOM      8  O3  <0> d          16.742  56.159  12.065  0.00  0.00    -0.330 OA
BRANCH   8   9
ATOM      9  C2  <0> d          16.807  55.052  12.966  0.00  0.00     0.148 C 
ATOM     10  C3  <0> d          17.800  55.365  14.087  0.00  0.00     0.058 C 
ATOM     11  C1  <0> d          15.422  54.803  13.567  0.00  0.00     0.058 C 
BRANCH   9  12
ATOM     12  C4  <0> d          17.261  53.823  12.221  0.00  0.00     0.209 C 
ATOM     13  O2  <0> d          17.418  52.773  12.819  0.00  0.00    -0.646 OA
ATOM     14  O1  <0> d          17.471  53.880  11.022  0.00  0.00    -0.646 OA
ENDBRANCH   9  12
ENDBRANCH   8   9
ENDBRANCH   1   8
TORSDOF 3
ENDMDL
MODEL 2
REMARK VINA RESULT:    -6.758      1.374      2.253
REMARK INTER + INTRA:          -7.709
REMARK INTER:                  -8.531
REMARK INTRA:                   0.822
REMARK UNBOUND:                 0.234
REMARK  3 active torsions:
REMARK  status: ('A' for Active; 'I' for Inactive)
REMARK    1  A    between atoms: C5_1  and  O3_8 
REMARK    2  A    between atoms: O3_8  and  C2_9 
REMARK    3  A    between atoms: C2_9  and  C4_12 
ROOT
ATOM      1  C5  <0> d          15.349  56.602  12.651  0.00  0.00     0.070 A 
ATOM      2  C6  <0> d          14.058  56.922  12.256  0.00  0.00     0.038 A 
ATOM      3  C7  <0> d          13.614  58.227  12.340  0.00  0.00     0.026 A 
ATOM      4  C8  <0> d          14.456  59.216  12.818  0.00  0.00     0.034 A 
ATOM      5  C9  <0> d          15.744  58.900  13.212  0.00  0.00     0.026 A 
ATOM      6  C10 <0> d          16.189  57.594  13.135  0.00  0.00     0.038 A 
ATOM      7 Cl1  <0> d          13.896  60.856  12.921  0.00  0.00    -0.084 Cl
ENDROOT
BRANCH   1   8
ATOM      8  O3  <0> d          15.788  55.318  12.569  0.00  0.00    -0.330 OA
BRANCH   8   9
ATOM      9  C2  <0> d          17.028  55.098  11.894  0.00  0.00     0.148 C 
ATOM     10  C3  <0> d          18.120  55.951  12.545  0.00  0.00     0.058 C 
ATOM     11  C1  <0> d          17.408  53.620  11.995  0.00  0.00     0.058 C 
BRANCH   9  12
ATOM     12  C4  <0> d          16.887  55.484  10.444  0.00  0.00     0.209 C 
ATOM     13  O2  <0> d          17.428  56.493  10.027  0.00  0.00    -0.646 OA
ATOM     14  O1  <0> d          16.230  54.788   9.689  0.00  0.00    -0.646 OA
ENDBRANCH   9  12
ENDBRANCH   8   9
ENDBRANCH   1   8
TORSDOF 3
ENDMDL
MODEL 3
REMARK VINA RESULT:    -6.637      1.106      1.874
REMARK INTER + INTRA:          -7.567
REMARK INTER:                  -8.006
REMARK INTRA:                   0.439
REMARK UNBOUND:                 0.234
REMARK  3 active torsions:
REMARK  status: ('A' for Active; 'I' for Inactive)
REMARK    1  A    between atoms: C5_1  and  O3_8 
REMARK    2  A    between atoms: O3_8  and  C2_9 
REMARK    3  A    between atoms: C2_9  and  C4_12 
ROOT
ATOM      1  C5  <0> d          15.905  57.400  12.414  0.00  0.00     0.070 A 
ATOM      2  C6  <0> d          16.336  58.479  13.172  0.00  0.00     0.038 A 
ATOM      3  C7  <0> d          15.444  59.472  13.528  0.00  0.00     0.026 A 
ATOM      4  C8  <0> d          14.121  59.391  13.129  0.00  0.00     0.034 A 
ATOM      5  C9  <0> d          13.689  58.315  12.373  0.00  0.00     0.026 A 
ATOM      6  C10 <0> d          14.580  57.323  12.010  0.00  0.00     0.038 A 
ATOM      7 Cl1  <0> d          13.002  60.639  13.578  0.00  0.00    -0.084 Cl
ENDROOT
BRANCH   1   8
ATOM      8  O3  <0> d          16.781  56.421  12.063  0.00  0.00    -0.330 OA
BRANCH   8   9
ATOM      9  C2  <0> d          16.772  55.229  12.851  0.00  0.00     0.148 C 
ATOM     10  C3  <0> d          15.374  55.015  13.435  0.00  0.00     0.058 C 
ATOM     11  C1  <0> d          17.146  54.034  11.973  0.00  0.00     0.058 C 
BRANCH   9  12
ATOM     12  C4  <0> d          17.771  55.361  13.973  0.00  0.00     0.209 C 
ATOM     13  O2  <0> d          18.710  56.130  13.865  0.00  0.00    -0.646 OA
ATOM     14  O1  <0> d          17.638  54.698  14.987  0.00  0.00    -0.646 OA
ENDBRANCH   9  12
ENDBRANCH   8   9
ENDBRANCH   1   8
TORSDOF 3
ENDMDL
MODEL 4
REMARK VINA RESULT:    -6.583      1.012      1.462
REMARK INTER + INTRA:          -7.504
REMARK INTER:                  -8.050
REMARK INTRA:                   0.546
REMARK UNBOUND:                 0.234
REMARK  3 active torsions:
REMARK  status: ('A' for Active; 'I' for Inactive)
REMARK    1  A    between atoms: C5_1  and  O3_8 
REMARK    2  A    between atoms: O3_8  and  C2_9 
REMARK    3  A    between atoms: C2_9  and  C4_12 
ROOT
ATOM      1  C5  <0> d          15.253  57.024  12.816  0.00  0.00     0.070 A 
ATOM      2  C6  <0> d          16.061  58.078  13.219  0.00  0.00     0.038 A 
ATOM      3  C7  <0> d          15.565  59.368  13.213  0.00  0.00     0.026 A 
ATOM      4  C8  <0> d          14.265  59.609  12.805  0.00  0.00     0.034 A 
ATOM      5  C9  <0> d          13.459  58.559  12.402  0.00  0.00     0.026 A 
ATOM      6  C10 <0> d          13.952  57.269  12.402  0.00  0.00     0.038 A 
ATOM      7 Cl1  <0> d          13.645  61.230  12.799  0.00  0.00    -0.084 Cl
ENDROOT
BRANCH   1   8
ATOM      8  O3  <0> d          15.739  55.754  12.821  0.00  0.00    -0.330 OA
BRANCH   8   9
ATOM      9  C2  <0> d          16.924  55.510  12.061  0.00  0.00     0.148 C 
ATOM     10  C3  <0> d          16.773  56.127  10.669  0.00  0.00     0.058 C 
ATOM     11  C1  <0> d          18.124  56.138  12.770  0.00  0.00     0.058 C 
BRANCH   9  12
ATOM     12  C4  <0> d          17.139  54.023  11.930  0.00  0.00     0.209 C 
ATOM     13  O2  <0> d          16.700  53.267  12.779  0.00  0.00    -0.646 OA
ATOM     14  O1  <0> d          17.751  53.578  10.975  0.00  0.00    -0.646 OA
ENDBRANCH   9  12
ENDBRANCH   8   9
ENDBRANCH   1   8
TORSDOF 3
ENDMDL
MODEL 5
REMARK VINA RESULT:    -6.492      3.517      5.523
REMARK INTER + INTRA:          -7.397
REMARK INTER:                  -7.751
REMARK INTRA:                   0.355
REMARK UNBOUND:                 0.234
REMARK  3 active torsions:
REMARK  status: ('A' for Active; 'I' for Inactive)
REMARK    1  A    between atoms: C5_1  and  O3_8 
REMARK    2  A    between atoms: O3_8  and  C2_9 
REMARK    3  A    between atoms: C2_9  and  C4_12 
ROOT
ATOM      1  C5  <0> d          15.661  58.412  12.466  0.00  0.00     0.070 A 
ATOM      2  C6  <0> d          15.922  57.100  12.096  0.00  0.00     0.038 A 
ATOM      3  C7  <0> d          16.919  56.388  12.736  0.00  0.00     0.026 A 
ATOM      4  C8  <0> d          17.656  56.982  13.745  0.00  0.00     0.034 A 
ATOM      5  C9  <0> d          17.398  58.291  14.115  0.00  0.00     0.026 A 
ATOM      6  C10 <0> d          16.406  59.008  13.473  0.00  0.00     0.038 A 
ATOM      7 Cl1  <0> d          18.907  56.086  14.547  0.00  0.00    -0.084 Cl
ENDROOT
BRANCH   1   8
ATOM      8  O3  <0> d          14.681  59.114  11.838  0.00  0.00    -0.330 OA
BRANCH   8   9
ATOM      9  C2  <0> d          13.399  59.143  12.468  0.00  0.00     0.148 C 
ATOM     10  C3  <0> d          12.966  57.716  12.812  0.00  0.00     0.058 C 
ATOM     11  C1  <0> d          13.479  59.974  13.750  0.00  0.00     0.058 C 
BRANCH   9  12
ATOM     12  C4  <0> d          12.392  59.761  11.531  0.00  0.00     0.209 C 
ATOM     13  O2  <0> d          12.204  60.965  11.547  0.00  0.00    -0.646 OA
ATOM     14  O1  <0> d          11.767  59.056  10.758  0.00  0.00    -0.646 OA
ENDBRANCH   9  12
ENDBRANCH   8   9
ENDBRANCH   1   8
TORSDOF 3
ENDMDL
MODEL 6
REMARK VINA RESULT:    -6.425      1.254      2.170
REMARK INTER + INTRA:          -7.318
REMARK INTER:                  -7.844
REMARK INTRA:                   0.527
REMARK UNBOUND:                 0.234
REMARK  3 active torsions:
REMARK  status: ('A' for Active; 'I' for Inactive)
REMARK    1  A    between atoms: C5_1  and  O3_8 
REMARK    2  A    between atoms: O3_8  and  C2_9 
REMARK    3  A    between atoms: C2_9  and  C4_12 
ROOT
ATOM      1  C5  <0> d          15.637  56.393  12.323  0.00  0.00     0.070 A 
ATOM      2  C6  <0> d          14.255  56.509  12.363  0.00  0.00     0.038 A 
ATOM      3  C7  <0> d          13.675  57.707  12.733  0.00  0.00     0.026 A 
ATOM      4  C8  <0> d          14.470  58.790  13.063  0.00  0.00     0.034 A 
ATOM      5  C9  <0> d          15.849  58.675  13.024  0.00  0.00     0.026 A 
ATOM      6  C10 <0> d          16.433  57.477  12.660  0.00  0.00     0.038 A 
ATOM      7 Cl1  <0> d          13.739  60.294  13.527  0.00  0.00    -0.084 Cl
ENDROOT
BRANCH   1   8
ATOM      8  O3  <0> d          16.210  55.215  11.958  0.00  0.00    -0.330 OA
BRANCH   8   9
ATOM      9  C2  <0> d          16.854  54.461  12.988  0.00  0.00     0.148 C 
ATOM     10  C3  <0> d          17.759  53.402  12.353  0.00  0.00     0.058 C 
ATOM     11  C1  <0> d          17.696  55.397  13.856  0.00  0.00     0.058 C 
BRANCH   9  12
ATOM     12  C4  <0> d          15.812  53.784  13.841  0.00  0.00     0.209 C 
ATOM     13  O2  <0> d          15.678  54.108  15.009  0.00  0.00    -0.646 OA
ATOM     14  O1  <0> d          15.104  52.914  13.365  0.00  0.00    -0.646 OA
ENDBRANCH   9  12
ENDBRANCH   8   9
ENDBRANCH   1   8
TORSDOF 3
ENDMDL
MODEL 7
REMARK VINA RESULT:    -6.250      1.779      2.427
REMARK INTER + INTRA:          -7.112
REMARK INTER:                  -7.939
REMARK INTRA:                   0.826
REMARK UNBOUND:                 0.234
REMARK  3 active torsions:
REMARK  status: ('A' for Active; 'I' for Inactive)
REMARK    1  A    between atoms: C5_1  and  O3_8 
REMARK    2  A    between atoms: O3_8  and  C2_9 
REMARK    3  A    between atoms: C2_9  and  C4_12 
ROOT
ATOM      1  C5  <0> d          15.146  58.604  12.649  0.00  0.00     0.070 A 
ATOM      2  C6  <0> d          14.224  58.301  11.657  0.00  0.00     0.038 A 
ATOM      3  C7  <0> d          13.030  58.992  11.590  0.00  0.00     0.026 A 
ATOM      4  C8  <0> d          12.752  59.987  12.512  0.00  0.00     0.034 A 
ATOM      5  C9  <0> d          13.670  60.291  13.501  0.00  0.00     0.026 A 
ATOM      6  C10 <0> d          14.863  59.598  13.575  0.00  0.00     0.038 A 
ATOM      7 Cl1  <0> d          11.252  60.855  12.425  0.00  0.00    -0.084 Cl
ENDROOT
BRANCH   1   8
ATOM      8  O3  <0> d          16.321  57.925  12.716  0.00  0.00    -0.330 OA
BRANCH   8   9
ATOM      9  C2  <0> d          16.258  56.504  12.581  0.00  0.00     0.148 C 
ATOM     10  C3  <0> d          17.218  55.854  13.580  0.00  0.00     0.058 C 
ATOM     11  C1  <0> d          14.832  56.027  12.861  0.00  0.00     0.058 C 
BRANCH   9  12
ATOM     12  C4  <0> d          16.653  56.114  11.179  0.00  0.00     0.209 C 
ATOM     13  O2  <0> d          17.697  56.526  10.704  0.00  0.00    -0.646 OA
ATOM     14  O1  <0> d          15.928  55.387  10.522  0.00  0.00    -0.646 OA
ENDBRANCH   9  12
ENDBRANCH   8   9
ENDBRANCH   1   8
TORSDOF 3
ENDMDL
MODEL 8
REMARK VINA RESULT:    -6.226      1.788      2.399
REMARK INTER + INTRA:          -7.085
REMARK INTER:                  -7.762
REMARK INTRA:                   0.677
REMARK UNBOUND:                 0.234
REMARK  3 active torsions:
REMARK  status: ('A' for Active; 'I' for Inactive)
REMARK    1  A    between atoms: C5_1  and  O3_8 
REMARK    2  A    between atoms: O3_8  and  C2_9 
REMARK    3  A    between atoms: C2_9  and  C4_12 
ROOT
ATOM      1  C5  <0> d          14.959  58.638  12.597  0.00  0.00     0.070 A 
ATOM      2  C6  <0> d          14.742  59.594  13.578  0.00  0.00     0.038 A 
ATOM      3  C7  <0> d          13.586  60.350  13.561  0.00  0.00     0.026 A 
ATOM      4  C8  <0> d          12.643  60.153  12.567  0.00  0.00     0.034 A 
ATOM      5  C9  <0> d          12.858  59.200  11.587  0.00  0.00     0.026 A 
ATOM      6  C10 <0> d          14.016  58.446  11.597  0.00  0.00     0.038 A 
ATOM      7 Cl1  <0> d          11.191  61.103  12.549  0.00  0.00    -0.084 Cl
ENDROOT
BRANCH   1   8
ATOM      8  O3  <0> d          16.096  57.893  12.612  0.00  0.00    -0.330 OA
BRANCH   8   9
ATOM      9  C2  <0> d          15.942  56.473  12.553  0.00  0.00     0.148 C 
ATOM     10  C3  <0> d          14.508  56.099  12.935  0.00  0.00     0.058 C 
ATOM     11  C1  <0> d          16.235  55.987  11.133  0.00  0.00     0.058 C 
BRANCH   9  12
ATOM     12  C4  <0> d          16.904  55.824  13.516  0.00  0.00     0.209 C 
ATOM     13  O2  <0> d          16.605  54.775  14.059  0.00  0.00    -0.646 OA
ATOM     14  O1  <0> d          17.979  56.348  13.750  0.00  0.00    -0.646 OA
ENDBRANCH   9  12
ENDBRANCH   8   9
ENDBRANCH   1   8
TORSDOF 3
ENDMDL
MODEL 9
REMARK VINA RESULT:    -6.124      4.161      6.454
REMARK INTER + INTRA:          -6.964
REMARK INTER:                  -7.198
REMARK INTRA:                   0.234
REMARK UNBOUND:                 0.234
REMARK  3 active torsions:
REMARK  status: ('A' for Active; 'I' for Inactive)
REMARK    1  A    between atoms: C5_1  and  O3_8 
REMARK    2  A    between atoms: O3_8  and  C2_9 
REMARK    3  A    between atoms: C2_9  and  C4_12 
ROOT
ATOM      1  C5  <0> d          13.875  59.094  13.178  0.00  0.00     0.070 A 
ATOM      2  C6  <0> d          15.143  59.551  13.508  0.00  0.00     0.038 A 
ATOM      3  C7  <0> d          16.246  58.753  13.277  0.00  0.00     0.026 A 
ATOM      4  C8  <0> d          16.088  57.497  12.717  0.00  0.00     0.034 A 
ATOM      5  C9  <0> d          14.824  57.039  12.388  0.00  0.00     0.026 A 
ATOM      6  C10 <0> d          13.718  57.832  12.623  0.00  0.00     0.038 A 
ATOM      7 Cl1  <0> d          17.475  56.496  12.427  0.00  0.00    -0.084 Cl
ENDROOT
BRANCH   1   8
ATOM      8  O3  <0> d          12.788  59.878  13.405  0.00  0.00    -0.330 OA
BRANCH   8   9
ATOM      9  C2  <0> d          12.321  60.671  12.312  0.00  0.00     0.148 C 
ATOM     10  C3  <0> d          13.227  60.450  11.098  0.00  0.00     0.058 C 
ATOM     11  C1  <0> d          10.890  60.263  11.960  0.00  0.00     0.058 C 
BRANCH   9  12
ATOM     12  C4  <0> d          12.348  62.127  12.700  0.00  0.00     0.209 C 
ATOM     13  O2  <0> d          12.633  62.973  11.870  0.00  0.00    -0.646 OA
ATOM     14  O1  <0> d          12.085  62.459  13.843  0.00  0.00    -0.646 OA
ENDBRANCH   9  12
ENDBRANCH   8   9
ENDBRANCH   1   8
TORSDOF 3
ENDMDL
