MODEL 1
REMARK VINA RESULT:    -7.721      0.000      0.000
REMARK INTER + INTRA:          -9.325
REMARK INTER:                  -8.714
REMARK INTRA:                  -0.611
REMARK UNBOUND:                -0.249
REMARK  3 active torsions:
REMARK  status: ('A' for Active; 'I' for Inactive)
REMARK    1  A    between atoms: C6_1  and  N1_14 
REMARK    2  A    between atoms: N1_14  and  C5_16 
REMARK    3  A    between atoms: C5_16  and  C3_17 
ROOT
ATOM      1  C6  <0> d          15.806  54.883  12.957  0.00  0.00     0.133 A 
ATOM      2  C7  <0> d          16.988  55.249  13.624  0.00  0.00     0.122 A 
ATOM      3  C8  <0> d          17.561  54.325  14.514  0.00  0.00     0.138 A 
ATOM      4  N2  <0> d          18.685  54.929  15.016  0.00  0.00    -0.337 N 
ATOM      5  H1  <0> d          19.304  54.548  15.658  0.00  0.00     0.168 HD
ATOM      6  C9  <0> d          18.774  56.164  14.446  0.00  0.00     0.182 A 
ATOM      7  N3  <0> d          17.778  56.350  13.631  0.00  0.00    -0.346 N 
ATOM      8  H3  <0> d          17.616  57.194  13.080  1.00  0.00     0.167 HD
ATOM      9  N4  <0> d          16.970  53.147  14.691  0.00  0.00    -0.337 N 
ATOM     10  H4  <0> d          17.378  52.468  15.334  1.00  0.00     0.168 HD
ATOM     11  C10 <0> d          15.863  52.848  14.044  0.00  0.00     0.183 A 
ATOM     12  N5  <0> d          15.285  53.686  13.202  0.00  0.00    -0.337 N 
ATOM     13  H5  <0> d          14.424  53.408  12.732  1.00  0.00     0.168 HD
ENDROOT
BRANCH   1  14
ATOM     14  N1  <0> d          15.197  55.752  12.070  0.00  0.00    -0.368 N 
ATOM     15  H7  <0> d          15.538  55.843  11.167  0.00  0.00     0.161 HD
BRANCH  14  16
ATOM     16  C5  <0> d          14.036  56.538  12.495  0.00  0.00     0.186 C 
BRANCH  16  17
ATOM     17  C3  <0> d          14.458  57.963  12.748  0.00  0.00     0.070 A 
ATOM     18  O1  <0> d          15.723  58.407  12.812  0.00  0.00    -0.325 OA
ATOM     19  C4  <0> d          15.722  59.728  13.053  0.00  0.00     0.142 A 
ATOM     20  C1  <0> d          14.446  60.142  13.145  0.00  0.00     0.027 A 
ATOM     21  C2  <0> d          13.631  59.004  12.949  0.00  0.00     0.036 A 
ENDBRANCH  16  17
ENDBRANCH  14  16
ENDBRANCH   1  14
TORSDOF 3
ENDMDL
MODEL 2
REMARK VINA RESULT:    -7.398      1.812      2.402
REMARK INTER + INTRA:          -8.944
REMARK INTER:                  -8.705
REMARK INTRA:                  -0.239
REMARK UNBOUND:                -0.249
REMARK  3 active torsions:
REMARK  status: ('A' for Active; 'I' for Inactive)
REMARK    1  A    between atoms: C6_1  and  N1_14 
REMARK    2  A    between atoms: N1_14  and  C5_16 
REMARK    3  A    between atoms: C5_16  and  C3_17 
ROOT
ATOM      1  C6  <0> d          16.120  54.916  12.371  0.00  0.00     0.133 A 
ATOM      2  C7  <0> d          15.952  54.127  13.522  0.00  0.00     0.122 A 
ATOM      3  C8  <0> d          16.792  53.014  13.692  0.00  0.00     0.138 A 
ATOM      4  N2  <0> d          16.417  52.434  14.877  0.00  0.00    -0.337 N 
ATOM      5  H1  <0> d          16.808  51.642  15.278  0.00  0.00     0.168 HD
ATOM      6  C9  <0> d          15.393  53.174  15.388  0.00  0.00     0.182 A 
ATOM      7  N3  <0> d          15.122  54.166  14.592  0.00  0.00    -0.346 N 
ATOM      8  H3  <0> d          14.397  54.867  14.749  1.00  0.00     0.167 HD
ATOM      9  N4  <0> d          17.709  52.749  12.766  0.00  0.00    -0.337 N 
ATOM     10  H4  <0> d          18.325  51.943  12.880  1.00  0.00     0.168 HD
ATOM     11  C10 <0> d          17.831  53.517  11.704  0.00  0.00     0.183 A 
ATOM     12  N5  <0> d          17.061  54.570  11.498  0.00  0.00    -0.337 N 
ATOM     13  H5  <0> d          17.191  55.128  10.654  1.00  0.00     0.168 HD
ENDROOT
BRANCH   1  14
ATOM     14  N1  <0> d          15.322  56.024  12.149  0.00  0.00    -0.368 N 
ATOM     15  H7  <0> d          14.361  55.921  12.071  0.00  0.00     0.161 HD
BRANCH  14  16
ATOM     16  C5  <0> d          15.928  57.352  12.031  0.00  0.00     0.186 C 
BRANCH  16  17
ATOM     17  C3  <0> d          14.946  58.396  12.497  0.00  0.00     0.070 A 
ATOM     18  O1  <0> d          13.637  58.432  12.197  0.00  0.00    -0.325 OA
ATOM     19  C4  <0> d          13.074  59.502  12.783  0.00  0.00     0.142 A 
ATOM     20  C1  <0> d          14.025  60.162  13.467  0.00  0.00     0.027 A 
ATOM     21  C2  <0> d          15.232  59.450  13.283  0.00  0.00     0.036 A 
ENDBRANCH  16  17
ENDBRANCH  14  16
ENDBRANCH   1  14
TORSDOF 3
ENDMDL
MODEL 3
REMARK VINA RESULT:    -7.352      1.822      2.727
REMARK INTER + INTRA:          -8.891
REMARK INTER:                  -8.647
REMARK INTRA:                  -0.244
REMARK UNBOUND:                -0.249
REMARK  3 active torsions:
REMARK  status: ('A' for Active; 'I' for Inactive)
REMARK    1  A    between atoms: C6_1  and  N1_14 
REMARK    2  A    between atoms: N1_14  and  C5_16 
REMARK    3  A    between atoms: C5_16  and  C3_17 
ROOT
ATOM      1  C6  <0> d          15.811  55.742  11.912  0.00  0.00     0.133 A 
ATOM      2  C7  <0> d          16.278  54.668  12.689  0.00  0.00     0.122 A 
ATOM      3  C8  <0> d          17.135  53.734  12.084  0.00  0.00     0.138 A 
ATOM      4  N2  <0> d          17.432  52.810  13.053  0.00  0.00    -0.337 N 
ATOM      5  H1  <0> d          18.006  52.034  12.950  0.00  0.00     0.168 HD
ATOM      6  C9  <0> d          16.775  53.182  14.187  0.00  0.00     0.182 A 
ATOM      7  N3  <0> d          16.099  54.271  13.972  0.00  0.00    -0.346 N 
ATOM      8  H3  <0> d          15.522  54.753  14.662  1.00  0.00     0.167 HD
ATOM      9  N4  <0> d          17.472  53.898  10.808  0.00  0.00    -0.337 N 
ATOM     10  H4  <0> d          18.095  53.226  10.359  1.00  0.00     0.168 HD
ATOM     11  C10 <0> d          17.010  54.920  10.119  0.00  0.00     0.183 A 
ATOM     12  N5  <0> d          16.198  55.820  10.643  0.00  0.00    -0.337 N 
ATOM     13  H5  <0> d          15.862  56.588  10.063  1.00  0.00     0.168 HD
ENDROOT
BRANCH   1  14
ATOM     14  N1  <0> d          14.964  56.692  12.453  0.00  0.00    -0.368 N 
ATOM     15  H7  <0> d          14.043  56.463  12.653  0.00  0.00     0.161 HD
BRANCH  14  16
ATOM     16  C5  <0> d          15.456  58.045  12.722  0.00  0.00     0.186 C 
BRANCH  16  17
ATOM     17  C3  <0> d          14.304  59.016  12.684  0.00  0.00     0.070 A 
ATOM     18  O1  <0> d          13.253  58.955  11.850  0.00  0.00    -0.325 OA
ATOM     19  C4  <0> d          12.425  59.982  12.098  0.00  0.00     0.142 A 
ATOM     20  C1  <0> d          12.944  60.715  13.100  0.00  0.00     0.027 A 
ATOM     21  C2  <0> d          14.156  60.092  13.478  0.00  0.00     0.036 A 
ENDBRANCH  16  17
ENDBRANCH  14  16
ENDBRANCH   1  14
TORSDOF 3
ENDMDL
MODEL 4
REMARK VINA RESULT:    -7.266      1.295      1.904
REMARK INTER + INTRA:          -8.789
REMARK INTER:                  -8.345
REMARK INTRA:                  -0.444
REMARK UNBOUND:                -0.249
REMARK  3 active torsions:
REMARK  status: ('A' for Active; 'I' for Inactive)
REMARK    1  A    between atoms: C6_1  and  N1_14 
REMARK    2  A    between atoms: N1_14  and  C5_16 
REMARK    3  A    between atoms: C5_16  and  C3_17 
ROOT
ATOM      1  C6  <0> d          15.886  56.269  12.862  0.00  0.00     0.133 A 
ATOM      2  C7  <0> d          16.865  55.601  13.617  0.00  0.00     0.122 A 
ATOM      3  C8  <0> d          16.562  54.322  14.114  0.00  0.00     0.138 A 
ATOM      4  N2  <0> d          17.675  53.909  14.801  0.00  0.00    -0.337 N 
ATOM      5  H1  <0> d          17.783  53.063  15.263  0.00  0.00     0.168 HD
ATOM      6  C9  <0> d          18.601  54.905  14.714  0.00  0.00     0.182 A 
ATOM      7  N3  <0> d          18.125  55.896  14.020  0.00  0.00    -0.346 N 
ATOM      8  H3  <0> d          18.622  56.762  13.811  1.00  0.00     0.167 HD
ATOM      9  N4  <0> d          15.369  53.795  13.855  0.00  0.00    -0.337 N 
ATOM     10  H4  <0> d          15.139  52.866  14.211  1.00  0.00     0.168 HD
ATOM     11  C10 <0> d          14.483  54.458  13.143  0.00  0.00     0.183 A 
ATOM     12  N5  <0> d          14.720  55.664  12.660  0.00  0.00    -0.337 N 
ATOM     13  H5  <0> d          13.996  56.139  12.121  1.00  0.00     0.168 HD
ENDROOT
BRANCH   1  14
ATOM     14  N1  <0> d          16.128  57.530  12.348  0.00  0.00    -0.368 N 
ATOM     15  H7  <0> d          16.478  57.629  11.449  0.00  0.00     0.161 HD
BRANCH  14  16
ATOM     16  C5  <0> d          15.856  58.718  13.161  0.00  0.00     0.186 C 
BRANCH  16  17
ATOM     17  C3  <0> d          14.505  59.279  12.796  0.00  0.00     0.070 A 
ATOM     18  O1  <0> d          13.606  58.697  11.987  0.00  0.00    -0.325 OA
ATOM     19  C4  <0> d          12.519  59.480  11.888  0.00  0.00     0.142 A 
ATOM     20  C1  <0> d          12.717  60.578  12.640  0.00  0.00     0.027 A 
ATOM     21  C2  <0> d          13.997  60.448  13.225  0.00  0.00     0.036 A 
ENDBRANCH  16  17
ENDBRANCH  14  16
ENDBRANCH   1  14
TORSDOF 3
ENDMDL
MODEL 5
REMARK VINA RESULT:    -7.247      0.545      2.260
REMARK INTER + INTRA:          -8.767
REMARK INTER:                  -8.416
REMARK INTRA:                  -0.351
REMARK UNBOUND:                -0.249
REMARK  3 active torsions:
REMARK  status: ('A' for Active; 'I' for Inactive)
REMARK    1  A    between atoms: C6_1  and  N1_14 
REMARK    2  A    between atoms: N1_14  and  C5_16 
REMARK    3  A    between atoms: C5_16  and  C3_17 
ROOT
ATOM      1  C6  <0> d          16.309  55.520  12.913  0.00  0.00     0.133 A 
ATOM      2  C7  <0> d          16.159  54.310  13.613  0.00  0.00     0.122 A 
ATOM      3  C8  <0> d          17.144  53.961  14.552  0.00  0.00     0.138 A 
ATOM      4  N2  <0> d          16.755  52.755  15.078  0.00  0.00    -0.337 N 
ATOM      5  H1  <0> d          17.226  52.246  15.756  0.00  0.00     0.168 HD
ATOM      6  C9  <0> d          15.585  52.405  14.473  0.00  0.00     0.182 A 
ATOM      7  N3  <0> d          15.238  53.318  13.614  0.00  0.00    -0.346 N 
ATOM      8  H3  <0> d          14.400  53.290  13.032  1.00  0.00     0.167 HD
ATOM      9  N4  <0> d          18.174  54.780  14.743  0.00  0.00    -0.337 N 
ATOM     10  H4  <0> d          18.895  54.536  15.423  1.00  0.00     0.168 HD
ATOM     11  C10 <0> d          18.272  55.904  14.064  0.00  0.00     0.183 A 
ATOM     12  N5  <0> d          17.375  56.272  13.168  0.00  0.00    -0.337 N 
ATOM     13  H5  <0> d          17.502  57.148  12.664  1.00  0.00     0.168 HD
ENDROOT
BRANCH   1  14
ATOM     14  N1  <0> d          15.371  55.916  11.977  0.00  0.00    -0.368 N 
ATOM     15  H7  <0> d          15.538  55.773  11.032  0.00  0.00     0.161 HD
BRANCH  14  16
ATOM     16  C5  <0> d          14.127  56.555  12.411  0.00  0.00     0.186 C 
BRANCH  16  17
ATOM     17  C3  <0> d          14.380  58.016  12.684  0.00  0.00     0.070 A 
ATOM     18  O1  <0> d          15.586  58.595  12.802  0.00  0.00    -0.325 OA
ATOM     19  C4  <0> d          15.431  59.907  13.045  0.00  0.00     0.142 A 
ATOM     20  C1  <0> d          14.114  60.179  13.085  0.00  0.00     0.027 A 
ATOM     21  C2  <0> d          13.437  58.960  12.851  0.00  0.00     0.036 A 
ENDBRANCH  16  17
ENDBRANCH  14  16
ENDBRANCH   1  14
TORSDOF 3
ENDMDL
MODEL 6
REMARK VINA RESULT:    -7.230      1.801      1.993
REMARK INTER + INTRA:          -8.747
REMARK INTER:                  -8.633
REMARK INTRA:                  -0.114
REMARK UNBOUND:                -0.249
REMARK  3 active torsions:
REMARK  status: ('A' for Active; 'I' for Inactive)
REMARK    1  A    between atoms: C6_1  and  N1_14 
REMARK    2  A    between atoms: N1_14  and  C5_16 
REMARK    3  A    between atoms: C5_16  and  C3_17 
ROOT
ATOM      1  C6  <0> d          15.246  54.849  13.141  0.00  0.00     0.133 A 
ATOM      2  C7  <0> d          16.397  54.183  12.685  0.00  0.00     0.122 A 
ATOM      3  C8  <0> d          16.919  53.144  13.475  0.00  0.00     0.138 A 
ATOM      4  N2  <0> d          18.021  52.677  12.805  0.00  0.00    -0.337 N 
ATOM      5  H1  <0> d          18.604  51.956  13.091  0.00  0.00     0.168 HD
ATOM      6  C9  <0> d          18.147  53.412  11.664  0.00  0.00     0.182 A 
ATOM      7  N3  <0> d          17.194  54.293  11.595  0.00  0.00    -0.346 N 
ATOM      8  H3  <0> d          17.066  54.965  10.838  1.00  0.00     0.167 HD
ATOM      9  N4  <0> d          16.310  52.832  14.615  0.00  0.00    -0.337 N 
ATOM     10  H4  <0> d          16.681  52.079  15.196  1.00  0.00     0.168 HD
ATOM     11  C10 <0> d          15.235  53.484  15.002  0.00  0.00     0.183 A 
ATOM     12  N5  <0> d          14.711  54.470  14.296  0.00  0.00    -0.337 N 
ATOM     13  H5  <0> d          13.881  54.949  14.645  1.00  0.00     0.168 HD
ENDROOT
BRANCH   1  14
ATOM     14  N1  <0> d          14.688  55.880  12.406  0.00  0.00    -0.368 N 
ATOM     15  H7  <0> d          13.771  55.815  12.098  0.00  0.00     0.161 HD
BRANCH  14  16
ATOM     16  C5  <0> d          15.483  57.069  12.092  0.00  0.00     0.186 C 
BRANCH  16  17
ATOM     17  C3  <0> d          14.709  58.306  12.473  0.00  0.00     0.070 A 
ATOM     18  O1  <0> d          13.440  58.576  12.125  0.00  0.00    -0.325 OA
ATOM     19  C4  <0> d          13.079  59.763  12.639  0.00  0.00     0.142 A 
ATOM     20  C1  <0> d          14.122  60.265  13.325  0.00  0.00     0.027 A 
ATOM     21  C2  <0> d          15.172  59.325  13.218  0.00  0.00     0.036 A 
ENDBRANCH  16  17
ENDBRANCH  14  16
ENDBRANCH   1  14
TORSDOF 3
ENDMDL
MODEL 7
REMARK VINA RESULT:    -6.944      2.825      6.050
REMARK INTER + INTRA:          -8.412
REMARK INTER:                  -8.114
REMARK INTRA:                  -0.298
REMARK UNBOUND:                -0.249
REMARK  3 active torsions:
REMARK  status: ('A' for Active; 'I' for Inactive)
REMARK    1  A    between atoms: C6_1  and  N1_14 
REMARK    2  A    between atoms: N1_14  and  C5_16 
REMARK    3  A    between atoms: C5_16  and  C3_17 
ROOT
ATOM      1  C6  <0> d          14.483  57.634  12.353  0.00  0.00     0.133 A 
ATOM      2  C7  <0> d          13.356  58.404  12.018  0.00  0.00     0.122 A 
ATOM      3  C8  <0> d          13.325  59.748  12.429  0.00  0.00     0.138 A 
ATOM      4  N2  <0> d          12.133  60.254  11.977  0.00  0.00    -0.337 N 
ATOM      5  H1  <0> d          11.811  61.161  12.099  0.00  0.00     0.168 HD
ATOM      6  C9  <0> d          11.484  59.249  11.325  0.00  0.00     0.182 A 
ATOM      7  N3  <0> d          12.202  58.165  11.350  0.00  0.00    -0.346 N 
ATOM      8  H3  <0> d          11.938  57.273  10.931  1.00  0.00     0.167 HD
ATOM      9  N4  <0> d          14.354  60.238  13.114  0.00  0.00    -0.337 N 
ATOM     10  H4  <0> d          14.341  61.213  13.416  1.00  0.00     0.168 HD
ATOM     11  C10 <0> d          15.389  59.478  13.404  0.00  0.00     0.183 A 
ATOM     12  N5  <0> d          15.461  58.210  13.044  0.00  0.00    -0.337 N 
ATOM     13  H5  <0> d          16.282  57.663  13.302  1.00  0.00     0.168 HD
ENDROOT
BRANCH   1  14
ATOM     14  N1  <0> d          14.570  56.306  11.976  0.00  0.00    -0.368 N 
ATOM     15  H7  <0> d          14.487  56.060  11.041  0.00  0.00     0.161 HD
BRANCH  14  16
ATOM     16  C5  <0> d          14.784  55.270  12.989  0.00  0.00     0.186 C 
BRANCH  16  17
ATOM     17  C3  <0> d          15.989  54.444  12.615  0.00  0.00     0.070 A 
ATOM     18  O1  <0> d          16.335  53.268  13.164  0.00  0.00    -0.325 OA
ATOM     19  C4  <0> d          17.463  52.820  12.589  0.00  0.00     0.142 A 
ATOM     20  C1  <0> d          17.849  53.713  11.660  0.00  0.00     0.027 A 
ATOM     21  C2  <0> d          16.899  54.759  11.677  0.00  0.00     0.036 A 
ENDBRANCH  16  17
ENDBRANCH  14  16
ENDBRANCH   1  14
TORSDOF 3
ENDMDL
MODEL 8
REMARK VINA RESULT:    -6.759      2.308      3.724
REMARK INTER + INTRA:          -8.194
REMARK INTER:                  -7.961
REMARK INTRA:                  -0.233
REMARK UNBOUND:                -0.249
REMARK  3 active torsions:
REMARK  status: ('A' for Active; 'I' for Inactive)
REMARK    1  A    between atoms: C6_1  and  N1_14 
REMARK    2  A    between atoms: N1_14  and  C5_16 
REMARK    3  A    between atoms: C5_16  and  C3_17 
ROOT
ATOM      1  C6  <0> d          16.087  58.253  13.038  0.00  0.00     0.133 A 
ATOM      2  C7  <0> d          16.280  56.953  12.539  0.00  0.00     0.122 A 
ATOM      3  C8  <0> d          17.380  56.217  13.012  0.00  0.00     0.138 A 
ATOM      4  N2  <0> d          17.329  55.006  12.370  0.00  0.00    -0.337 N 
ATOM      5  H1  <0> d          17.952  54.271  12.482  0.00  0.00     0.168 HD
ATOM      6  C9  <0> d          16.241  55.024  11.549  0.00  0.00     0.182 A 
ATOM      7  N3  <0> d          15.628  56.166  11.649  0.00  0.00    -0.346 N 
ATOM      8  H3  <0> d          14.786  56.430  11.137  1.00  0.00     0.167 HD
ATOM      9  N4  <0> d          18.192  56.772  13.907  0.00  0.00    -0.337 N 
ATOM     10  H4  <0> d          18.993  56.246  14.257  1.00  0.00     0.168 HD
ATOM     11  C10 <0> d          17.971  57.993  14.346  0.00  0.00     0.183 A 
ATOM     12  N5  <0> d          16.954  58.725  13.927  0.00  0.00    -0.337 N 
ATOM     13  H5  <0> d          16.833  59.669  14.293  1.00  0.00     0.168 HD
ENDROOT
BRANCH   1  14
ATOM     14  N1  <0> d          15.022  59.024  12.608  0.00  0.00    -0.368 N 
ATOM     15  H7  <0> d          14.733  58.981  11.684  0.00  0.00     0.161 HD
BRANCH  14  16
ATOM     16  C5  <0> d          14.333  59.910  13.550  0.00  0.00     0.186 C 
BRANCH  16  17
ATOM     17  C3  <0> d          13.094  60.470  12.898  0.00  0.00     0.070 A 
ATOM     18  O1  <0> d          12.566  61.683  13.129  0.00  0.00    -0.325 OA
ATOM     19  C4  <0> d          11.466  61.843  12.375  0.00  0.00     0.142 A 
ATOM     20  C1  <0> d          11.282  60.725  11.650  0.00  0.00     0.027 A 
ATOM     21  C2  <0> d          12.331  59.840  11.987  0.00  0.00     0.036 A 
ENDBRANCH  16  17
ENDBRANCH  14  16
ENDBRANCH   1  14
TORSDOF 3
ENDMDL
MODEL 9
REMARK VINA RESULT:    -6.654      3.506      6.502
REMARK INTER + INTRA:          -8.070
REMARK INTER:                  -7.820
REMARK INTRA:                  -0.249
REMARK UNBOUND:                -0.249
REMARK  3 active torsions:
REMARK  status: ('A' for Active; 'I' for Inactive)
REMARK    1  A    between atoms: C6_1  and  N1_14 
REMARK    2  A    between atoms: N1_14  and  C5_16 
REMARK    3  A    between atoms: C5_16  and  C3_17 
ROOT
ATOM      1  C6  <0> d          16.138  53.117  14.284  0.00  0.00     0.133 A 
ATOM      2  C7  <0> d          15.446  54.148  13.625  0.00  0.00     0.122 A 
ATOM      3  C8  <0> d          15.998  54.667  12.441  0.00  0.00     0.138 A 
ATOM      4  N2  <0> d          15.133  55.643  12.016  0.00  0.00    -0.337 N 
ATOM      5  H1  <0> d          15.231  56.191  11.222  0.00  0.00     0.168 HD
ATOM      6  C9  <0> d          14.109  55.700  12.914  0.00  0.00     0.182 A 
ATOM      7  N3  <0> d          14.295  54.823  13.856  0.00  0.00    -0.346 N 
ATOM      8  H3  <0> d          13.670  54.668  14.648  1.00  0.00     0.167 HD
ATOM      9  N4  <0> d          17.145  54.168  11.990  0.00  0.00    -0.337 N 
ATOM     10  H4  <0> d          17.554  54.537  11.131  1.00  0.00     0.168 HD
ATOM     11  C10 <0> d          17.758  53.202  12.642  0.00  0.00     0.183 A 
ATOM     12  N5  <0> d          17.281  52.686  13.760  0.00  0.00    -0.337 N 
ATOM     13  H5  <0> d          17.799  51.944  14.230  1.00  0.00     0.168 HD
ENDROOT
BRANCH   1  14
ATOM     14  N1  <0> d          15.644  52.568  15.453  0.00  0.00    -0.368 N 
ATOM     15  H7  <0> d          15.026  53.074  16.003  0.00  0.00     0.161 HD
BRANCH  14  16
ATOM     16  C5  <0> d          16.055  51.223  15.862  0.00  0.00     0.186 C 
BRANCH  16  17
ATOM     17  C3  <0> d          14.857  50.465  16.376  0.00  0.00     0.070 A 
ATOM     18  O1  <0> d          14.278  50.633  17.576  0.00  0.00    -0.325 OA
ATOM     19  C4  <0> d          13.239  49.790  17.693  0.00  0.00     0.142 A 
ATOM     20  C1  <0> d          13.145  49.071  16.560  0.00  0.00     0.027 A 
ATOM     21  C2  <0> d          14.188  49.507  15.711  0.00  0.00     0.036 A 
ENDBRANCH  16  17
ENDBRANCH  14  16
ENDBRANCH   1  14
TORSDOF 3
ENDMDL
