MODEL 1
REMARK VINA RESULT:    -7.180      0.000      0.000
REMARK INTER + INTRA:          -8.204
REMARK INTER:                  -8.008
REMARK INTRA:                  -0.195
REMARK UNBOUND:                -0.184
REMARK  2 active torsions:
REMARK  status: ('A' for Active; 'I' for Inactive)
REMARK       I    between atoms: N2_1  and  C3_2 
REMARK    1  A    between atoms: N2_1  and  N1_12 
REMARK    2  A    between atoms: C3_2  and  C4_5 
REMARK       I    between atoms: N1_12  and  C2_13 
ROOT
ATOM      1  N2  <0> d          15.549  56.976  12.153  0.00  0.00    -0.262 N 
ATOM      2  C3  <0> d          14.216  57.112  12.298  0.00  0.00     0.286 C 
ATOM      3  O2  <0> d          13.510  56.126  12.383  0.00  0.00    -0.264 OA
ATOM      4  H5  <0> d          16.112  57.762  12.086  0.00  0.00     0.190 HD
ENDROOT
BRANCH   2   5
ATOM      5  C4  <0> d          13.611  58.463  12.356  0.00  0.00     0.102 A 
ATOM      6  C5  <0> d          14.168  59.435  13.184  0.00  0.00     0.035 A 
ATOM      7  C6  <0> d          13.590  60.694  13.227  0.00  0.00     0.004 A 
ATOM      8  C7  <0> d          12.474  60.937  12.442  0.00  0.00     0.017 A 
ATOM      9  C8  <0> d          11.970  59.921  11.646  0.00  0.00     0.088 A 
ATOM     10  N3  <0> d          12.542  58.737  11.619  0.00  0.00    -0.361 N 
ATOM     11  H3  <0> d          12.154  58.011  11.016  1.00  0.00     0.165 HD
ENDBRANCH   2   5
BRANCH   1  12
ATOM     12  N1  <0> d          16.121  55.698  12.099  0.00  0.00    -0.268 N 
ATOM     13  C2  <0> d          16.903  55.353  11.058  0.00  0.00     0.232 C 
ATOM     14  C1  <0> d          17.519  53.980  11.000  0.00  0.00     0.119 C 
ATOM     15  O1  <0> d          17.113  56.150  10.167  0.00  0.00    -0.272 OA
ATOM     16  H4  <0> d          15.954  55.061  12.812  0.00  0.00     0.190 HD
ENDBRANCH   1  12
TORSDOF 2
ENDMDL
MODEL 2
REMARK VINA RESULT:    -7.082      1.677      2.009
REMARK INTER + INTRA:          -8.094
REMARK INTER:                  -7.889
REMARK INTRA:                  -0.205
REMARK UNBOUND:                -0.184
REMARK  2 active torsions:
REMARK  status: ('A' for Active; 'I' for Inactive)
REMARK       I    between atoms: N2_1  and  C3_2 
REMARK    1  A    between atoms: N2_1  and  N1_12 
REMARK    2  A    between atoms: C3_2  and  C4_5 
REMARK       I    between atoms: N1_12  and  C2_13 
ROOT
ATOM      1  N2  <0> d          14.389  56.519  12.076  0.00  0.00    -0.262 N 
ATOM      2  C3  <0> d          14.745  57.754  12.484  0.00  0.00     0.286 C 
ATOM      3  O2  <0> d          15.866  57.955  12.907  0.00  0.00    -0.264 OA
ATOM      4  H5  <0> d          13.495  56.359  11.739  0.00  0.00     0.190 HD
ENDROOT
BRANCH   2   5
ATOM      5  C4  <0> d          13.769  58.866  12.415  0.00  0.00     0.102 A 
ATOM      6  C5  <0> d          13.949  59.995  13.212  0.00  0.00     0.035 A 
ATOM      7  C6  <0> d          13.028  61.027  13.136  0.00  0.00     0.004 A 
ATOM      8  C7  <0> d          11.956  60.894  12.268  0.00  0.00     0.017 A 
ATOM      9  C8  <0> d          11.835  59.741  11.510  0.00  0.00     0.088 A 
ATOM     10  N3  <0> d          12.728  58.779  11.596  0.00  0.00    -0.361 N 
ATOM     11  H3  <0> d          12.619  57.945  11.019  1.00  0.00     0.165 HD
ENDBRANCH   2   5
BRANCH   1  12
ATOM     12  N1  <0> d          15.313  55.467  12.141  0.00  0.00    -0.268 N 
ATOM     13  C2  <0> d          15.197  54.527  13.099  0.00  0.00     0.232 C 
ATOM     14  C1  <0> d          16.189  53.396  13.168  0.00  0.00     0.119 C 
ATOM     15  O1  <0> d          14.292  54.591  13.905  0.00  0.00    -0.272 OA
ATOM     16  H4  <0> d          16.035  55.416  11.496  0.00  0.00     0.190 HD
ENDBRANCH   1  12
TORSDOF 2
ENDMDL
MODEL 3
REMARK VINA RESULT:    -6.752      2.182      5.600
REMARK INTER + INTRA:          -7.725
REMARK INTER:                  -7.549
REMARK INTRA:                  -0.176
REMARK UNBOUND:                -0.184
REMARK  2 active torsions:
REMARK  status: ('A' for Active; 'I' for Inactive)
REMARK       I    between atoms: N2_1  and  C3_2 
REMARK    1  A    between atoms: N2_1  and  N1_12 
REMARK    2  A    between atoms: C3_2  and  C4_5 
REMARK       I    between atoms: N1_12  and  C2_13 
ROOT
ATOM      1  N2  <0> d          13.838  58.703  12.393  0.00  0.00    -0.262 N 
ATOM      2  C3  <0> d          15.149  58.713  12.705  0.00  0.00     0.286 C 
ATOM      3  O2  <0> d          15.671  59.734  13.106  0.00  0.00    -0.264 OA
ATOM      4  H5  <0> d          13.422  57.889  12.073  0.00  0.00     0.190 HD
ENDROOT
BRANCH   2   5
ATOM      5  C4  <0> d          15.954  57.477  12.561  0.00  0.00     0.102 A 
ATOM      6  C5  <0> d          17.109  57.311  13.322  0.00  0.00     0.035 A 
ATOM      7  C6  <0> d          17.851  56.150  13.176  0.00  0.00     0.004 A 
ATOM      8  C7  <0> d          17.413  55.195  12.272  0.00  0.00     0.017 A 
ATOM      9  C8  <0> d          16.258  55.429  11.543  0.00  0.00     0.088 A 
ATOM     10  N3  <0> d          15.569  56.537  11.706  0.00  0.00    -0.361 N 
ATOM     11  H3  <0> d          14.718  56.678  11.163  1.00  0.00     0.165 HD
ENDBRANCH   2   5
BRANCH   1  12
ATOM     12  N1  <0> d          13.077  59.872  12.530  0.00  0.00    -0.268 N 
ATOM     13  C2  <0> d          11.866  59.960  11.947  0.00  0.00     0.232 C 
ATOM     14  C1  <0> d          11.048  61.216  12.094  0.00  0.00     0.119 C 
ATOM     15  O1  <0> d          11.434  59.026  11.304  0.00  0.00    -0.272 OA
ATOM     16  H4  <0> d          13.423  60.618  13.044  0.00  0.00     0.190 HD
ENDBRANCH   1  12
TORSDOF 2
ENDMDL
MODEL 4
REMARK VINA RESULT:    -6.749      2.007      5.522
REMARK INTER + INTRA:          -7.722
REMARK INTER:                  -7.537
REMARK INTRA:                  -0.185
REMARK UNBOUND:                -0.184
REMARK  2 active torsions:
REMARK  status: ('A' for Active; 'I' for Inactive)
REMARK       I    between atoms: N2_1  and  C3_2 
REMARK    1  A    between atoms: N2_1  and  N1_12 
REMARK    2  A    between atoms: C3_2  and  C4_5 
REMARK       I    between atoms: N1_12  and  C2_13 
ROOT
ATOM      1  N2  <0> d          13.840  58.617  12.255  0.00  0.00    -0.262 N 
ATOM      2  C3  <0> d          13.892  57.276  12.124  0.00  0.00     0.286 C 
ATOM      3  O2  <0> d          12.922  56.667  11.718  0.00  0.00    -0.264 OA
ATOM      4  H5  <0> d          14.613  59.103  12.578  0.00  0.00     0.190 HD
ENDROOT
BRANCH   2   5
ATOM      5  C4  <0> d          15.132  56.546  12.475  0.00  0.00     0.102 A 
ATOM      6  C5  <0> d          16.279  57.256  12.823  0.00  0.00     0.035 A 
ATOM      7  C6  <0> d          17.431  56.559  13.148  0.00  0.00     0.004 A 
ATOM      8  C7  <0> d          17.398  55.174  13.111  0.00  0.00     0.017 A 
ATOM      9  C8  <0> d          16.225  54.532  12.750  0.00  0.00     0.088 A 
ATOM     10  N3  <0> d          15.143  55.219  12.453  0.00  0.00    -0.361 N 
ATOM     11  H3  <0> d          14.291  54.719  12.199  1.00  0.00     0.165 HD
ENDBRANCH   2   5
BRANCH   1  12
ATOM     12  N1  <0> d          12.666  59.307  11.923  0.00  0.00    -0.268 N 
ATOM     13  C2  <0> d          12.437  60.532  12.436  0.00  0.00     0.232 C 
ATOM     14  C1  <0> d          11.176  61.274  12.079  0.00  0.00     0.119 C 
ATOM     15  O1  <0> d          13.247  61.036  13.185  0.00  0.00    -0.272 OA
ATOM     16  H4  <0> d          12.019  58.904  11.323  0.00  0.00     0.190 HD
ENDBRANCH   1  12
TORSDOF 2
ENDMDL
MODEL 5
REMARK VINA RESULT:    -6.647      4.137      5.523
REMARK INTER + INTRA:          -7.608
REMARK INTER:                  -7.426
REMARK INTRA:                  -0.182
REMARK UNBOUND:                -0.184
REMARK  2 active torsions:
REMARK  status: ('A' for Active; 'I' for Inactive)
REMARK       I    between atoms: N2_1  and  C3_2 
REMARK    1  A    between atoms: N2_1  and  N1_12 
REMARK    2  A    between atoms: C3_2  and  C4_5 
REMARK       I    between atoms: N1_12  and  C2_13 
ROOT
ATOM      1  N2  <0> d          16.189  53.115  15.070  0.00  0.00    -0.262 N 
ATOM      2  C3  <0> d          16.355  53.484  13.784  0.00  0.00     0.286 C 
ATOM      3  O2  <0> d          16.970  52.766  13.021  0.00  0.00    -0.264 OA
ATOM      4  H5  <0> d          15.698  53.687  15.679  0.00  0.00     0.190 HD
ENDROOT
BRANCH   2   5
ATOM      5  C4  <0> d          15.785  54.763  13.301  0.00  0.00     0.102 A 
ATOM      6  C5  <0> d          14.403  54.931  13.256  0.00  0.00     0.035 A 
ATOM      7  C6  <0> d          13.885  56.133  12.801  0.00  0.00     0.004 A 
ATOM      8  C7  <0> d          14.768  57.126  12.405  0.00  0.00     0.017 A 
ATOM      9  C8  <0> d          16.131  56.888  12.472  0.00  0.00     0.088 A 
ATOM     10  N3  <0> d          16.596  55.740  12.914  0.00  0.00    -0.361 N 
ATOM     11  H3  <0> d          17.605  55.596  12.961  1.00  0.00     0.165 HD
ENDBRANCH   2   5
BRANCH   1  12
ATOM     12  N1  <0> d          16.727  51.904  15.527  0.00  0.00    -0.268 N 
ATOM     13  C2  <0> d          15.989  51.089  16.304  0.00  0.00     0.232 C 
ATOM     14  C1  <0> d          16.568  49.788  16.795  0.00  0.00     0.119 C 
ATOM     15  O1  <0> d          14.857  51.403  16.608  0.00  0.00    -0.272 OA
ATOM     16  H4  <0> d          17.632  51.654  15.283  0.00  0.00     0.190 HD
ENDBRANCH   1  12
TORSDOF 2
ENDMDL
MODEL 6
REMARK VINA RESULT:    -6.571      1.627      1.952
REMARK INTER + INTRA:          -7.524
REMARK INTER:                  -7.372
REMARK INTRA:                  -0.152
REMARK UNBOUND:                -0.184
REMARK  2 active torsions:
REMARK  status: ('A' for Active; 'I' for Inactive)
REMARK       I    between atoms: N2_1  and  C3_2 
REMARK    1  A    between atoms: N2_1  and  N1_12 
REMARK    2  A    between atoms: C3_2  and  C4_5 
REMARK       I    between atoms: N1_12  and  C2_13 
ROOT
ATOM      1  N2  <0> d          15.597  55.514  12.883  0.00  0.00    -0.262 N 
ATOM      2  C3  <0> d          15.452  56.495  11.971  0.00  0.00     0.286 C 
ATOM      3  O2  <0> d          15.855  56.333  10.835  0.00  0.00    -0.264 OA
ATOM      4  H5  <0> d          15.275  55.643  13.788  0.00  0.00     0.190 HD
ENDROOT
BRANCH   2   5
ATOM      5  C4  <0> d          14.801  57.770  12.350  0.00  0.00     0.102 A 
ATOM      6  C5  <0> d          15.544  58.765  12.982  0.00  0.00     0.035 A 
ATOM      7  C6  <0> d          14.920  59.952  13.331  0.00  0.00     0.004 A 
ATOM      8  C7  <0> d          13.573  60.103  13.038  0.00  0.00     0.017 A 
ATOM      9  C8  <0> d          12.895  59.069  12.413  0.00  0.00     0.088 A 
ATOM     10  N3  <0> d          13.513  57.955  12.087  0.00  0.00    -0.361 N 
ATOM     11  H3  <0> d          12.990  57.215  11.619  1.00  0.00     0.165 HD
ENDBRANCH   2   5
BRANCH   1  12
ATOM     12  N1  <0> d          16.213  54.308  12.524  0.00  0.00    -0.268 N 
ATOM     13  C2  <0> d          17.508  54.097  12.826  0.00  0.00     0.232 C 
ATOM     14  C1  <0> d          18.171  52.800  12.440  0.00  0.00     0.119 C 
ATOM     15  O1  <0> d          18.141  54.951  13.410  0.00  0.00    -0.272 OA
ATOM     16  H4  <0> d          15.706  53.625  12.058  0.00  0.00     0.190 HD
ENDBRANCH   1  12
TORSDOF 2
ENDMDL
MODEL 7
REMARK VINA RESULT:    -6.379      2.140      5.667
REMARK INTER + INTRA:          -7.309
REMARK INTER:                  -7.103
REMARK INTRA:                  -0.206
REMARK UNBOUND:                -0.184
REMARK  2 active torsions:
REMARK  status: ('A' for Active; 'I' for Inactive)
REMARK       I    between atoms: N2_1  and  C3_2 
REMARK    1  A    between atoms: N2_1  and  N1_12 
REMARK    2  A    between atoms: C3_2  and  C4_5 
REMARK       I    between atoms: N1_12  and  C2_13 
ROOT
ATOM      1  N2  <0> d          14.427  58.213  12.407  0.00  0.00    -0.262 N 
ATOM      2  C3  <0> d          14.152  56.893  12.384  0.00  0.00     0.286 C 
ATOM      3  O2  <0> d          13.079  56.503  11.969  0.00  0.00    -0.264 OA
ATOM      4  H5  <0> d          15.283  58.524  12.738  0.00  0.00     0.190 HD
ENDROOT
BRANCH   2   5
ATOM      5  C4  <0> d          15.160  55.918  12.863  0.00  0.00     0.102 A 
ATOM      6  C5  <0> d          14.750  54.668  13.322  0.00  0.00     0.035 A 
ATOM      7  C6  <0> d          15.704  53.768  13.767  0.00  0.00     0.004 A 
ATOM      8  C7  <0> d          17.037  54.149  13.739  0.00  0.00     0.017 A 
ATOM      9  C8  <0> d          17.373  55.410  13.276  0.00  0.00     0.088 A 
ATOM     10  N3  <0> d          16.447  56.243  12.853  0.00  0.00    -0.361 N 
ATOM     11  H3  <0> d          16.725  57.162  12.508  1.00  0.00     0.165 HD
ENDBRANCH   2   5
BRANCH   1  12
ATOM     12  N1  <0> d          13.474  59.134  11.953  0.00  0.00    -0.268 N 
ATOM     13  C2  <0> d          13.065  60.133  12.760  0.00  0.00     0.232 C 
ATOM     14  C1  <0> d          12.041  61.124  12.272  0.00  0.00     0.119 C 
ATOM     15  O1  <0> d          13.523  60.234  13.879  0.00  0.00    -0.272 OA
ATOM     16  H4  <0> d          13.108  59.053  11.059  0.00  0.00     0.190 HD
ENDBRANCH   1  12
TORSDOF 2
ENDMDL
MODEL 8
REMARK VINA RESULT:    -6.316      1.858      5.758
REMARK INTER + INTRA:          -7.239
REMARK INTER:                  -7.070
REMARK INTRA:                  -0.169
REMARK UNBOUND:                -0.184
REMARK  2 active torsions:
REMARK  status: ('A' for Active; 'I' for Inactive)
REMARK       I    between atoms: N2_1  and  C3_2 
REMARK    1  A    between atoms: N2_1  and  N1_12 
REMARK    2  A    between atoms: C3_2  and  C4_5 
REMARK       I    between atoms: N1_12  and  C2_13 
ROOT
ATOM      1  N2  <0> d          15.019  57.414  12.460  0.00  0.00    -0.262 N 
ATOM      2  C3  <0> d          14.713  56.109  12.601  0.00  0.00     0.286 C 
ATOM      3  O2  <0> d          13.577  55.777  12.878  0.00  0.00    -0.264 OA
ATOM      4  H5  <0> d          15.925  57.678  12.240  0.00  0.00     0.190 HD
ENDROOT
BRANCH   2   5
ATOM      5  C4  <0> d          15.761  55.078  12.417  0.00  0.00     0.102 A 
ATOM      6  C5  <0> d          16.050  54.193  13.454  0.00  0.00     0.035 A 
ATOM      7  C6  <0> d          17.034  53.235  13.266  0.00  0.00     0.004 A 
ATOM      8  C7  <0> d          17.696  53.196  12.049  0.00  0.00     0.017 A 
ATOM      9  C8  <0> d          17.361  54.111  11.064  0.00  0.00     0.088 A 
ATOM     10  N3  <0> d          16.418  55.006  11.266  0.00  0.00    -0.361 N 
ATOM     11  H3  <0> d          16.187  55.661  10.520  1.00  0.00     0.165 HD
ENDBRANCH   2   5
BRANCH   1  12
ATOM     12  N1  <0> d          14.027  58.389  12.634  0.00  0.00    -0.268 N 
ATOM     13  C2  <0> d          14.363  59.624  13.054  0.00  0.00     0.232 C 
ATOM     14  C1  <0> d          13.297  60.672  13.240  0.00  0.00     0.119 C 
ATOM     15  O1  <0> d          15.524  59.892  13.281  0.00  0.00    -0.272 OA
ATOM     16  H4  <0> d          13.099  58.174  12.452  0.00  0.00     0.190 HD
ENDBRANCH   1  12
TORSDOF 2
ENDMDL
MODEL 9
REMARK VINA RESULT:    -6.184      5.311      7.027
REMARK INTER + INTRA:          -7.091
REMARK INTER:                  -6.907
REMARK INTRA:                  -0.184
REMARK UNBOUND:                -0.184
REMARK  2 active torsions:
REMARK  status: ('A' for Active; 'I' for Inactive)
REMARK       I    between atoms: N2_1  and  C3_2 
REMARK    1  A    between atoms: N2_1  and  N1_12 
REMARK    2  A    between atoms: C3_2  and  C4_5 
REMARK       I    between atoms: N1_12  and  C2_13 
ROOT
ATOM      1  N2  <0> d          16.414  52.026  15.779  0.00  0.00    -0.262 N 
ATOM      2  C3  <0> d          16.212  52.698  14.627  0.00  0.00     0.286 C 
ATOM      3  O2  <0> d          15.425  52.272  13.805  0.00  0.00    -0.264 OA
ATOM      4  H5  <0> d          17.042  52.366  16.434  0.00  0.00     0.190 HD
ENDROOT
BRANCH   2   5
ATOM      5  C4  <0> d          16.949  53.956  14.365  0.00  0.00     0.102 A 
ATOM      6  C5  <0> d          16.436  54.881  13.458  0.00  0.00     0.035 A 
ATOM      7  C6  <0> d          17.137  56.053  13.223  0.00  0.00     0.004 A 
ATOM      8  C7  <0> d          18.328  56.259  13.902  0.00  0.00     0.017 A 
ATOM      9  C8  <0> d          18.781  55.294  14.786  0.00  0.00     0.088 A 
ATOM     10  N3  <0> d          18.093  54.193  14.995  0.00  0.00    -0.361 N 
ATOM     11  H3  <0> d          18.447  53.503  15.659  1.00  0.00     0.165 HD
ENDBRANCH   2   5
BRANCH   1  12
ATOM     12  N1  <0> d          15.717  50.836  16.027  0.00  0.00    -0.268 N 
ATOM     13  C2  <0> d          16.277  49.872  16.784  0.00  0.00     0.232 C 
ATOM     14  C1  <0> d          15.527  48.593  17.051  0.00  0.00     0.119 C 
ATOM     15  O1  <0> d          17.384  50.036  17.251  0.00  0.00    -0.272 OA
ATOM     16  H4  <0> d          14.831  50.706  15.654  0.00  0.00     0.190 HD
ENDBRANCH   1  12
TORSDOF 2
ENDMDL
