MODEL 1
REMARK VINA RESULT:    -7.252      0.000      0.000
REMARK INTER + INTRA:          -8.203
REMARK INTER:                  -8.008
REMARK INTRA:                  -0.195
REMARK UNBOUND:                -0.102
REMARK  2 active torsions:
REMARK  status: ('A' for Active; 'I' for Inactive)
REMARK       I    between atoms: N2_1  and  C3_2 
REMARK    1  A    between atoms: N2_1  and  N1_12 
REMARK    2  A    between atoms: C3_2  and  C4_5 
REMARK       I    between atoms: N1_12  and  C2_13 
ROOT
ATOM      1  N2  <0> d          15.580  56.967  12.110  0.00  0.00    -0.262 N 
ATOM      2  C3  <0> d          14.248  57.109  12.258  0.00  0.00     0.286 C 
ATOM      3  O2  <0> d          13.538  56.127  12.348  0.00  0.00    -0.264 OA
ATOM      4  H5  <0> d          16.146  57.750  12.039  0.00  0.00     0.190 HD
ENDROOT
BRANCH   2   5
ATOM      5  C4  <0> d          13.650  58.463  12.315  0.00  0.00     0.102 A 
ATOM      6  C5  <0> d          14.208  59.432  13.145  0.00  0.00     0.035 A 
ATOM      7  C6  <0> d          13.637  60.694  13.187  0.00  0.00     0.004 A 
ATOM      8  C7  <0> d          12.525  60.943  12.397  0.00  0.00     0.017 A 
ATOM      9  C8  <0> d          12.019  59.931  11.599  0.00  0.00     0.088 A 
ATOM     10  N3  <0> d          12.585  58.744  11.573  0.00  0.00    -0.361 N 
ATOM     11  H3  <0> d          12.196  58.020  10.968  1.00  0.00     0.165 HD
ENDBRANCH   2   5
BRANCH   1  12
ATOM     12  N1  <0> d          16.146  55.686  12.058  0.00  0.00    -0.268 N 
ATOM     13  C2  <0> d          16.926  55.336  11.016  0.00  0.00     0.232 C 
ATOM     14  C1  <0> d          17.534  53.959  10.960  0.00  0.00     0.119 C 
ATOM     15  O1  <0> d          17.138  56.130  10.124  0.00  0.00    -0.272 OA
ATOM     16  H4  <0> d          15.976  55.051  12.771  0.00  0.00     0.190 HD
ENDBRANCH   1  12
TORSDOF 2
ENDMDL
MODEL 2
REMARK VINA RESULT:    -7.145      1.707      2.040
REMARK INTER + INTRA:          -8.083
REMARK INTER:                  -7.881
REMARK INTRA:                  -0.202
REMARK UNBOUND:                -0.102
REMARK  2 active torsions:
REMARK  status: ('A' for Active; 'I' for Inactive)
REMARK       I    between atoms: N2_1  and  C3_2 
REMARK    1  A    between atoms: N2_1  and  N1_12 
REMARK    2  A    between atoms: C3_2  and  C4_5 
REMARK       I    between atoms: N1_12  and  C2_13 
ROOT
ATOM      1  N2  <0> d          14.315  56.529  12.086  0.00  0.00    -0.262 N 
ATOM      2  C3  <0> d          14.691  57.774  12.439  0.00  0.00     0.286 C 
ATOM      3  O2  <0> d          15.833  57.985  12.798  0.00  0.00    -0.264 OA
ATOM      4  H5  <0> d          13.404  56.360  11.800  0.00  0.00     0.190 HD
ENDROOT
BRANCH   2   5
ATOM      5  C4  <0> d          13.713  58.886  12.388  0.00  0.00     0.102 A 
ATOM      6  C5  <0> d          13.883  59.995  13.213  0.00  0.00     0.035 A 
ATOM      7  C6  <0> d          12.960  61.027  13.154  0.00  0.00     0.004 A 
ATOM      8  C7  <0> d          11.896  60.912  12.272  0.00  0.00     0.017 A 
ATOM      9  C8  <0> d          11.785  59.777  11.486  0.00  0.00     0.088 A 
ATOM     10  N3  <0> d          12.680  58.816  11.557  0.00  0.00    -0.361 N 
ATOM     11  H3  <0> d          12.578  57.996  10.959  1.00  0.00     0.165 HD
ENDBRANCH   2   5
BRANCH   1  12
ATOM     12  N1  <0> d          15.240  55.478  12.134  0.00  0.00    -0.268 N 
ATOM     13  C2  <0> d          15.176  54.568  13.126  0.00  0.00     0.232 C 
ATOM     14  C1  <0> d          16.170  53.438  13.178  0.00  0.00     0.119 C 
ATOM     15  O1  <0> d          14.316  54.659  13.977  0.00  0.00    -0.272 OA
ATOM     16  H4  <0> d          15.927  55.405  11.453  0.00  0.00     0.190 HD
ENDBRANCH   1  12
TORSDOF 2
ENDMDL
MODEL 3
REMARK VINA RESULT:    -6.825      2.014      5.522
REMARK INTER + INTRA:          -7.726
REMARK INTER:                  -7.540
REMARK INTRA:                  -0.186
REMARK UNBOUND:                -0.102
REMARK  2 active torsions:
REMARK  status: ('A' for Active; 'I' for Inactive)
REMARK       I    between atoms: N2_1  and  C3_2 
REMARK    1  A    between atoms: N2_1  and  N1_12 
REMARK    2  A    between atoms: C3_2  and  C4_5 
REMARK       I    between atoms: N1_12  and  C2_13 
ROOT
ATOM      1  N2  <0> d          13.839  58.616  12.219  0.00  0.00    -0.262 N 
ATOM      2  C3  <0> d          13.885  57.273  12.108  0.00  0.00     0.286 C 
ATOM      3  O2  <0> d          12.911  56.663  11.714  0.00  0.00    -0.264 OA
ATOM      4  H5  <0> d          14.616  59.103  12.533  0.00  0.00     0.190 HD
ENDROOT
BRANCH   2   5
ATOM      5  C4  <0> d          15.123  56.542  12.464  0.00  0.00     0.102 A 
ATOM      6  C5  <0> d          16.268  57.253  12.819  0.00  0.00     0.035 A 
ATOM      7  C6  <0> d          17.418  56.555  13.148  0.00  0.00     0.004 A 
ATOM      8  C7  <0> d          17.385  55.169  13.111  0.00  0.00     0.017 A 
ATOM      9  C8  <0> d          16.214  54.528  12.743  0.00  0.00     0.088 A 
ATOM     10  N3  <0> d          15.134  55.215  12.441  0.00  0.00    -0.361 N 
ATOM     11  H3  <0> d          14.283  54.716  12.182  1.00  0.00     0.165 HD
ENDBRANCH   2   5
BRANCH   1  12
ATOM     12  N1  <0> d          12.668  59.307  11.882  0.00  0.00    -0.268 N 
ATOM     13  C2  <0> d          12.436  60.531  12.395  0.00  0.00     0.232 C 
ATOM     14  C1  <0> d          11.177  61.274  12.032  0.00  0.00     0.119 C 
ATOM     15  O1  <0> d          13.243  61.035  13.149  0.00  0.00    -0.272 OA
ATOM     16  H4  <0> d          12.024  58.904  11.279  0.00  0.00     0.190 HD
ENDBRANCH   1  12
TORSDOF 2
ENDMDL
MODEL 4
REMARK VINA RESULT:    -6.743      1.709      2.116
REMARK INTER + INTRA:          -7.634
REMARK INTER:                  -7.437
REMARK INTRA:                  -0.196
REMARK UNBOUND:                -0.102
REMARK  2 active torsions:
REMARK  status: ('A' for Active; 'I' for Inactive)
REMARK       I    between atoms: N2_1  and  C3_2 
REMARK    1  A    between atoms: N2_1  and  N1_12 
REMARK    2  A    between atoms: C3_2  and  C4_5 
REMARK       I    between atoms: N1_12  and  C2_13 
ROOT
ATOM      1  N2  <0> d          14.914  57.536  12.620  0.00  0.00    -0.262 N 
ATOM      2  C3  <0> d          14.917  58.859  12.874  0.00  0.00     0.286 C 
ATOM      3  O2  <0> d          15.921  59.393  13.304  0.00  0.00    -0.264 OA
ATOM      4  H5  <0> d          14.114  57.110  12.276  0.00  0.00     0.190 HD
ENDROOT
BRANCH   2   5
ATOM      5  C4  <0> d          13.698  59.664  12.627  0.00  0.00     0.102 A 
ATOM      6  C5  <0> d          12.762  59.231  11.690  0.00  0.00     0.035 A 
ATOM      7  C6  <0> d          11.627  59.995  11.470  0.00  0.00     0.004 A 
ATOM      8  C7  <0> d          11.468  61.167  12.193  0.00  0.00     0.017 A 
ATOM      9  C8  <0> d          12.442  61.540  13.105  0.00  0.00     0.088 A 
ATOM     10  N3  <0> d          13.507  60.792  13.299  0.00  0.00    -0.361 N 
ATOM     11  H3  <0> d          14.203  61.087  13.983  1.00  0.00     0.165 HD
ENDBRANCH   2   5
BRANCH   1  12
ATOM     12  N1  <0> d          16.068  56.775  12.853  0.00  0.00    -0.268 N 
ATOM     13  C2  <0> d          16.465  55.858  11.950  0.00  0.00     0.232 C 
ATOM     14  C1  <0> d          17.705  55.041  12.200  0.00  0.00     0.119 C 
ATOM     15  O1  <0> d          15.823  55.692  10.933  0.00  0.00    -0.272 OA
ATOM     16  H4  <0> d          16.580  56.909  13.666  0.00  0.00     0.190 HD
ENDBRANCH   1  12
TORSDOF 2
ENDMDL
MODEL 5
REMARK VINA RESULT:    -6.723      4.148      5.526
REMARK INTER + INTRA:          -7.611
REMARK INTER:                  -7.429
REMARK INTRA:                  -0.182
REMARK UNBOUND:                -0.102
REMARK  2 active torsions:
REMARK  status: ('A' for Active; 'I' for Inactive)
REMARK       I    between atoms: N2_1  and  C3_2 
REMARK    1  A    between atoms: N2_1  and  N1_12 
REMARK    2  A    between atoms: C3_2  and  C4_5 
REMARK       I    between atoms: N1_12  and  C2_13 
ROOT
ATOM      1  N2  <0> d          16.189  53.105  15.057  0.00  0.00    -0.262 N 
ATOM      2  C3  <0> d          16.375  53.488  13.778  0.00  0.00     0.286 C 
ATOM      3  O2  <0> d          17.003  52.778  13.017  0.00  0.00    -0.264 OA
ATOM      4  H5  <0> d          15.687  53.671  15.663  0.00  0.00     0.190 HD
ENDROOT
BRANCH   2   5
ATOM      5  C4  <0> d          15.813  54.772  13.299  0.00  0.00     0.102 A 
ATOM      6  C5  <0> d          14.432  54.949  13.258  0.00  0.00     0.035 A 
ATOM      7  C6  <0> d          13.921  56.156  12.807  0.00  0.00     0.004 A 
ATOM      8  C7  <0> d          14.810  57.143  12.411  0.00  0.00     0.017 A 
ATOM      9  C8  <0> d          16.171  56.896  12.472  0.00  0.00     0.088 A 
ATOM     10  N3  <0> d          16.629  55.744  12.911  0.00  0.00    -0.361 N 
ATOM     11  H3  <0> d          17.637  55.593  12.954  1.00  0.00     0.165 HD
ENDBRANCH   2   5
BRANCH   1  12
ATOM     12  N1  <0> d          16.720  51.890  15.510  0.00  0.00    -0.268 N 
ATOM     13  C2  <0> d          15.975  51.074  16.280  0.00  0.00     0.232 C 
ATOM     14  C1  <0> d          16.547  49.768  16.767  0.00  0.00     0.119 C 
ATOM     15  O1  <0> d          14.844  51.392  16.582  0.00  0.00    -0.272 OA
ATOM     16  H4  <0> d          17.625  51.637  15.268  0.00  0.00     0.190 HD
ENDBRANCH   1  12
TORSDOF 2
ENDMDL
MODEL 6
REMARK VINA RESULT:    -6.672      1.762      2.085
REMARK INTER + INTRA:          -7.554
REMARK INTER:                  -7.415
REMARK INTRA:                  -0.139
REMARK UNBOUND:                -0.102
REMARK  2 active torsions:
REMARK  status: ('A' for Active; 'I' for Inactive)
REMARK       I    between atoms: N2_1  and  C3_2 
REMARK    1  A    between atoms: N2_1  and  N1_12 
REMARK    2  A    between atoms: C3_2  and  C4_5 
REMARK       I    between atoms: N1_12  and  C2_13 
ROOT
ATOM      1  N2  <0> d          16.869  56.273  12.793  0.00  0.00    -0.262 N 
ATOM      2  C3  <0> d          15.898  56.713  11.967  0.00  0.00     0.286 C 
ATOM      3  O2  <0> d          15.707  56.156  10.904  0.00  0.00    -0.264 OA
ATOM      4  H5  <0> d          17.021  56.716  13.641  0.00  0.00     0.190 HD
ENDROOT
BRANCH   2   5
ATOM      5  C4  <0> d          15.063  57.873  12.357  0.00  0.00     0.102 A 
ATOM      6  C5  <0> d          15.629  58.920  13.080  0.00  0.00     0.035 A 
ATOM      7  C6  <0> d          14.835  59.998  13.437  0.00  0.00     0.004 A 
ATOM      8  C7  <0> d          13.501  59.990  13.060  0.00  0.00     0.017 A 
ATOM      9  C8  <0> d          13.003  58.913  12.347  0.00  0.00     0.088 A 
ATOM     10  N3  <0> d          13.781  57.905  12.015  0.00  0.00    -0.361 N 
ATOM     11  H3  <0> d          13.389  57.129  11.481  1.00  0.00     0.165 HD
ENDBRANCH   2   5
BRANCH   1  12
ATOM     12  N1  <0> d          17.658  55.175  12.424  0.00  0.00    -0.268 N 
ATOM     13  C2  <0> d          17.342  53.941  12.862  0.00  0.00     0.232 C 
ATOM     14  C1  <0> d          18.191  52.761  12.465  0.00  0.00     0.119 C 
ATOM     15  O1  <0> d          16.374  53.780  13.576  0.00  0.00    -0.272 OA
ATOM     16  H4  <0> d          18.431  55.304  11.853  0.00  0.00     0.190 HD
ENDBRANCH   1  12
TORSDOF 2
ENDMDL
MODEL 7
REMARK VINA RESULT:    -6.600      2.296      5.737
REMARK INTER + INTRA:          -7.474
REMARK INTER:                  -7.293
REMARK INTRA:                  -0.181
REMARK UNBOUND:                -0.102
REMARK  2 active torsions:
REMARK  status: ('A' for Active; 'I' for Inactive)
REMARK       I    between atoms: N2_1  and  C3_2 
REMARK    1  A    between atoms: N2_1  and  N1_12 
REMARK    2  A    between atoms: C3_2  and  C4_5 
REMARK       I    between atoms: N1_12  and  C2_13 
ROOT
ATOM      1  N2  <0> d          13.867  58.729  12.499  0.00  0.00    -0.262 N 
ATOM      2  C3  <0> d          15.199  58.818  12.688  0.00  0.00     0.286 C 
ATOM      3  O2  <0> d          15.708  59.896  12.925  0.00  0.00    -0.264 OA
ATOM      4  H5  <0> d          13.461  57.870  12.310  0.00  0.00     0.190 HD
ENDROOT
BRANCH   2   5
ATOM      5  C4  <0> d          16.041  57.603  12.608  0.00  0.00     0.102 A 
ATOM      6  C5  <0> d          15.747  56.617  11.668  0.00  0.00     0.035 A 
ATOM      7  C6  <0> d          16.544  55.486  11.606  0.00  0.00     0.004 A 
ATOM      8  C7  <0> d          17.608  55.378  12.487  0.00  0.00     0.017 A 
ATOM      9  C8  <0> d          17.840  56.393  13.400  0.00  0.00     0.088 A 
ATOM     10  N3  <0> d          17.071  57.460  13.433  0.00  0.00    -0.361 N 
ATOM     11  H3  <0> d          17.271  58.196  14.110  1.00  0.00     0.165 HD
ENDBRANCH   2   5
BRANCH   1  12
ATOM     12  N1  <0> d          13.070  59.879  12.575  0.00  0.00    -0.268 N 
ATOM     13  C2  <0> d          11.931  59.958  11.861  0.00  0.00     0.232 C 
ATOM     14  C1  <0> d          11.074  61.194  11.943  0.00  0.00     0.119 C 
ATOM     15  O1  <0> d          11.594  59.033  11.152  0.00  0.00    -0.272 OA
ATOM     16  H4  <0> d          13.339  60.619  13.142  0.00  0.00     0.190 HD
ENDBRANCH   1  12
TORSDOF 2
ENDMDL
MODEL 8
REMARK VINA RESULT:    -6.336      4.534      6.011
REMARK INTER + INTRA:          -7.179
REMARK INTER:                  -7.077
REMARK INTRA:                  -0.102
REMARK UNBOUND:                -0.102
REMARK  2 active torsions:
REMARK  status: ('A' for Active; 'I' for Inactive)
REMARK       I    between atoms: N2_1  and  C3_2 
REMARK    1  A    between atoms: N2_1  and  N1_12 
REMARK    2  A    between atoms: C3_2  and  C4_5 
REMARK       I    between atoms: N1_12  and  C2_13 
ROOT
ATOM      1  N2  <0> d          16.847  52.631  15.344  0.00  0.00    -0.262 N 
ATOM      2  C3  <0> d          16.475  53.078  14.128  0.00  0.00     0.286 C 
ATOM      3  O2  <0> d          15.980  52.312  13.324  0.00  0.00    -0.264 OA
ATOM      4  H5  <0> d          17.241  53.242  15.984  0.00  0.00     0.190 HD
ENDROOT
BRANCH   2   5
ATOM      5  C4  <0> d          16.666  54.503  13.771  0.00  0.00     0.102 A 
ATOM      6  C5  <0> d          17.835  55.160  14.150  0.00  0.00     0.035 A 
ATOM      7  C6  <0> d          18.000  56.493  13.810  0.00  0.00     0.004 A 
ATOM      8  C7  <0> d          16.988  57.124  13.103  0.00  0.00     0.017 A 
ATOM      9  C8  <0> d          15.850  56.412  12.764  0.00  0.00     0.088 A 
ATOM     10  N3  <0> d          15.722  55.145  13.094  0.00  0.00    -0.361 N 
ATOM     11  H3  <0> d          14.877  54.643  12.823  1.00  0.00     0.165 HD
ENDBRANCH   2   5
BRANCH   1  12
ATOM     12  N1  <0> d          16.665  51.283  15.681  0.00  0.00    -0.268 N 
ATOM     13  C2  <0> d          15.542  50.893  16.313  0.00  0.00     0.232 C 
ATOM     14  C1  <0> d          15.346  49.444  16.675  0.00  0.00     0.119 C 
ATOM     15  O1  <0> d          14.688  51.708  16.591  0.00  0.00    -0.272 OA
ATOM     16  H4  <0> d          17.348  50.632  15.458  0.00  0.00     0.190 HD
ENDBRANCH   1  12
TORSDOF 2
ENDMDL
MODEL 9
REMARK VINA RESULT:    -6.325      1.780      5.640
REMARK INTER + INTRA:          -7.167
REMARK INTER:                  -6.970
REMARK INTRA:                  -0.197
REMARK UNBOUND:                -0.102
REMARK  2 active torsions:
REMARK  status: ('A' for Active; 'I' for Inactive)
REMARK       I    between atoms: N2_1  and  C3_2 
REMARK    1  A    between atoms: N2_1  and  N1_12 
REMARK    2  A    between atoms: C3_2  and  C4_5 
REMARK       I    between atoms: N1_12  and  C2_13 
ROOT
ATOM      1  N2  <0> d          14.726  57.806  12.138  0.00  0.00    -0.262 N 
ATOM      2  C3  <0> d          14.519  56.517  12.476  0.00  0.00     0.286 C 
ATOM      3  O2  <0> d          13.464  56.182  12.977  0.00  0.00    -0.264 OA
ATOM      4  H5  <0> d          15.567  58.073  11.738  0.00  0.00     0.190 HD
ENDROOT
BRANCH   2   5
ATOM      5  C4  <0> d          15.578  55.509  12.235  0.00  0.00     0.102 A 
ATOM      6  C5  <0> d          15.887  54.581  13.227  0.00  0.00     0.035 A 
ATOM      7  C6  <0> d          16.880  53.645  12.987  0.00  0.00     0.004 A 
ATOM      8  C7  <0> d          17.530  53.670  11.763  0.00  0.00     0.017 A 
ATOM      9  C8  <0> d          17.175  54.624  10.824  0.00  0.00     0.088 A 
ATOM     10  N3  <0> d          16.224  55.498  11.076  0.00  0.00    -0.361 N 
ATOM     11  H3  <0> d          15.977  56.183  10.362  1.00  0.00     0.165 HD
ENDBRANCH   2   5
BRANCH   1  12
ATOM     12  N1  <0> d          13.724  58.759  12.365  0.00  0.00    -0.268 N 
ATOM     13  C2  <0> d          14.007  59.882  13.053  0.00  0.00     0.232 C 
ATOM     14  C1  <0> d          12.930  60.907  13.297  0.00  0.00     0.119 C 
ATOM     15  O1  <0> d          15.129  60.068  13.474  0.00  0.00    -0.272 OA
ATOM     16  H4  <0> d          12.827  58.610  12.027  0.00  0.00     0.190 HD
ENDBRANCH   1  12
TORSDOF 2
ENDMDL
