MODEL 1
REMARK VINA RESULT:    -8.264      0.000      0.000
REMARK INTER + INTRA:          -8.264
REMARK INTER:                  -8.264
REMARK INTRA:                   0.000
REMARK UNBOUND:                 0.000
REMARK  0 active torsions:
REMARK  status: ('A' for Active; 'I' for Inactive)
ROOT
ATOM      1  C1  <0> d          17.823  54.822  14.368  0.00  0.00     0.021 C 
ATOM      2  C2  <0> d          17.181  54.983  12.989  0.00  0.00     0.088 C 
ATOM      3  C3  <0> d          17.040  56.481  12.633  0.00  0.00     0.033 C 
ATOM      4  C4  <0> d          17.168  57.311  13.910  0.00  0.00     0.010 C 
ATOM      5  C5  <0> d          17.015  58.784  13.538  0.00  0.00     0.018 C 
ATOM      6  C6  <0> d          15.650  59.078  13.000  0.00  0.00     0.000 C 
ATOM      7  C7  <0> d          14.811  59.750  14.057  0.00  0.00    -0.009 C 
ATOM      8  C8  <0> d          13.490  59.878  13.829  0.00  0.00     0.052 C 
ATOM      9  C9  <0> d          13.012  59.303  12.542  0.00  0.00     0.177 C 
ATOM     10  O1  <0> d          12.183  59.855  11.845  0.00  0.00    -0.288 OA
ATOM     11  C10 <0> d          13.627  58.000  12.176  0.00  0.00    -0.006 C 
ATOM     12  C11 <0> d          14.954  57.888  12.428  0.00  0.00    -0.029 C 
ATOM     13  C12 <0> d          15.605  56.583  12.097  0.00  0.00     0.167 C 
ATOM     14  O2  <0> d          14.887  55.490  12.742  0.00  0.00    -0.311 OA
ATOM     15  C13 <0> d          15.728  54.477  12.994  0.00  0.00     0.263 C 
ATOM     16  O3  <0> d          15.397  53.332  13.191  0.00  0.00    -0.265 OA
ATOM     17  C14 <0> d          12.828  56.878  11.566  0.00  0.00     0.052 C 
ATOM     18  C15 <0> d          15.824  60.087  11.862  0.00  0.00     0.025 C 
ENDROOT
TORSDOF 0
ENDMDL
MODEL 2
REMARK VINA RESULT:    -7.894      9.289     12.490
REMARK INTER + INTRA:          -7.894
REMARK INTER:                  -7.894
REMARK INTRA:                   0.000
REMARK UNBOUND:                 0.000
REMARK  0 active torsions:
REMARK  status: ('A' for Active; 'I' for Inactive)
ROOT
ATOM      1  C1  <0> d          12.571  50.044  19.548  0.00  0.00     0.021 C 
ATOM      2  C2  <0> d          13.190  49.104  18.512  0.00  0.00     0.088 C 
ATOM      3  C3  <0> d          13.924  47.939  19.213  0.00  0.00     0.033 C 
ATOM      4  C4  <0> d          14.178  48.316  20.673  0.00  0.00     0.010 C 
ATOM      5  C5  <0> d          14.913  47.157  21.344  0.00  0.00     0.018 C 
ATOM      6  C6  <0> d          16.265  46.939  20.741  0.00  0.00     0.000 C 
ATOM      7  C7  <0> d          17.331  47.511  21.642  0.00  0.00    -0.009 C 
ATOM      8  C8  <0> d          18.582  47.612  21.156  0.00  0.00     0.052 C 
ATOM      9  C9  <0> d          18.751  47.160  19.748  0.00  0.00     0.177 C 
ATOM     10  O1  <0> d          19.718  46.522  19.376  0.00  0.00    -0.288 OA
ATOM     11  C10 <0> d          17.648  47.550  18.831  0.00  0.00    -0.006 C 
ATOM     12  C11 <0> d          16.399  47.454  19.346  0.00  0.00    -0.029 C 
ATOM     13  C12 <0> d          15.262  47.861  18.464  0.00  0.00     0.167 C 
ATOM     14  O2  <0> d          15.484  49.211  17.956  0.00  0.00    -0.311 OA
ATOM     15  C13 <0> d          14.308  49.810  17.724  0.00  0.00     0.263 C 
ATOM     16  O3  <0> d          14.145  50.762  16.998  0.00  0.00    -0.265 OA
ATOM     17  C14 <0> d          17.903  48.022  17.423  0.00  0.00     0.052 C 
ATOM     18  C15 <0> d          16.493  45.427  20.686  0.00  0.00     0.025 C 
ENDROOT
TORSDOF 0
ENDMDL
MODEL 3
REMARK VINA RESULT:    -7.479      1.930      5.501
REMARK INTER + INTRA:          -7.479
REMARK INTER:                  -7.479
REMARK INTRA:                   0.000
REMARK UNBOUND:                 0.000
REMARK  0 active torsions:
REMARK  status: ('A' for Active; 'I' for Inactive)
ROOT
ATOM      1  C1  <0> d          13.094  58.172  12.120  0.00  0.00     0.021 C 
ATOM      2  C2  <0> d          14.564  58.528  11.886  0.00  0.00     0.088 C 
ATOM      3  C3  <0> d          15.414  57.243  11.753  0.00  0.00     0.033 C 
ATOM      4  C4  <0> d          14.626  56.064  12.324  0.00  0.00     0.010 C 
ATOM      5  C5  <0> d          15.487  54.809  12.193  0.00  0.00     0.018 C 
ATOM      6  C6  <0> d          16.730  54.903  13.021  0.00  0.00     0.000 C 
ATOM      7  C7  <0> d          16.575  54.089  14.281  0.00  0.00    -0.009 C 
ATOM      8  C8  <0> d          17.498  54.242  15.249  0.00  0.00     0.052 C 
ATOM      9  C9  <0> d          18.563  55.239  14.956  0.00  0.00     0.177 C 
ATOM     10  O1  <0> d          19.731  55.054  15.242  0.00  0.00    -0.288 OA
ATOM     11  C10 <0> d          18.089  56.479  14.288  0.00  0.00    -0.006 C 
ATOM     12  C11 <0> d          17.150  56.303  13.327  0.00  0.00    -0.029 C 
ATOM     13  C12 <0> d          16.628  57.530  12.647  0.00  0.00     0.167 C 
ATOM     14  O2  <0> d          16.144  58.481  13.641  0.00  0.00    -0.311 OA
ATOM     15  C13 <0> d          15.164  59.230  13.116  0.00  0.00     0.263 C 
ATOM     16  O3  <0> d          14.807  60.303  13.542  0.00  0.00    -0.265 OA
ATOM     17  C14 <0> d          18.616  57.842  14.656  0.00  0.00     0.052 C 
ATOM     18  C15 <0> d          17.859  54.262  12.211  0.00  0.00     0.025 C 
ENDROOT
TORSDOF 0
ENDMDL
MODEL 4
REMARK VINA RESULT:    -7.295      8.440     11.184
REMARK INTER + INTRA:          -7.295
REMARK INTER:                  -7.295
REMARK INTRA:                   0.000
REMARK UNBOUND:                 0.000
REMARK  0 active torsions:
REMARK  status: ('A' for Active; 'I' for Inactive)
ROOT
ATOM      1  C1  <0> d          16.009  45.276  21.044  0.00  0.00     0.021 C 
ATOM      2  C2  <0> d          16.536  46.712  21.002  0.00  0.00     0.088 C 
ATOM      3  C3  <0> d          15.424  47.679  20.532  0.00  0.00     0.033 C 
ATOM      4  C4  <0> d          14.319  46.873  19.850  0.00  0.00     0.010 C 
ATOM      5  C5  <0> d          13.238  47.847  19.384  0.00  0.00     0.018 C 
ATOM      6  C6  <0> d          13.755  48.788  18.342  0.00  0.00     0.000 C 
ATOM      7  C7  <0> d          13.284  48.356  16.976  0.00  0.00    -0.009 C 
ATOM      8  C8  <0> d          13.839  48.946  15.900  0.00  0.00     0.052 C 
ATOM      9  C9  <0> d          14.890  49.954  16.204  0.00  0.00     0.177 C 
ATOM     10  O1  <0> d          14.987  51.003  15.597  0.00  0.00    -0.288 OA
ATOM     11  C10 <0> d          15.814  49.578  17.306  0.00  0.00    -0.006 C 
ATOM     12  C11 <0> d          15.236  48.973  18.372  0.00  0.00    -0.029 C 
ATOM     13  C12 <0> d          16.136  48.556  19.493  0.00  0.00     0.167 C 
ATOM     14  O2  <0> d          17.218  47.723  18.979  0.00  0.00    -0.311 OA
ATOM     15  C13 <0> d          17.626  46.869  19.928  0.00  0.00     0.263 C 
ATOM     16  O3  <0> d          18.696  46.308  19.944  0.00  0.00    -0.265 OA
ATOM     17  C14 <0> d          17.294  49.851  17.242  0.00  0.00     0.052 C 
ATOM     18  C15 <0> d          13.125  50.154  18.619  0.00  0.00     0.025 C 
ENDROOT
TORSDOF 0
ENDMDL
MODEL 5
REMARK VINA RESULT:    -7.288      8.561     12.100
REMARK INTER + INTRA:          -7.288
REMARK INTER:                  -7.288
REMARK INTRA:                   0.000
REMARK UNBOUND:                 0.000
REMARK  0 active torsions:
REMARK  status: ('A' for Active; 'I' for Inactive)
ROOT
ATOM      1  C1  <0> d          13.467  50.524  16.955  0.00  0.00     0.021 C 
ATOM      2  C2  <0> d          14.476  49.490  16.451  0.00  0.00     0.088 C 
ATOM      3  C3  <0> d          14.520  48.273  17.403  0.00  0.00     0.033 C 
ATOM      4  C4  <0> d          13.897  48.666  18.743  0.00  0.00     0.010 C 
ATOM      5  C5  <0> d          13.962  47.454  19.671  0.00  0.00     0.018 C 
ATOM      6  C6  <0> d          15.374  47.070  19.979  0.00  0.00     0.000 C 
ATOM      7  C7  <0> d          15.751  47.549  21.358  0.00  0.00    -0.009 C 
ATOM      8  C8  <0> d          17.049  47.496  21.713  0.00  0.00     0.052 C 
ATOM      9  C9  <0> d          17.971  46.985  20.663  0.00  0.00     0.177 C 
ATOM     10  O1  <0> d          18.895  46.234  20.911  0.00  0.00    -0.288 OA
ATOM     11  C10 <0> d          17.676  47.466  19.288  0.00  0.00    -0.006 C 
ATOM     12  C11 <0> d          16.364  47.524  18.957  0.00  0.00    -0.029 C 
ATOM     13  C12 <0> d          16.024  48.026  17.590  0.00  0.00     0.167 C 
ATOM     14  O2  <0> d          16.647  49.327  17.368  0.00  0.00    -0.311 OA
ATOM     15  C13 <0> d          15.910  50.044  16.508  0.00  0.00     0.263 C 
ATOM     16  O3  <0> d          16.313  50.985  15.867  0.00  0.00    -0.265 OA
ATOM     17  C14 <0> d          18.766  47.862  18.325  0.00  0.00     0.052 C 
ATOM     18  C15 <0> d          15.428  45.541  20.008  0.00  0.00     0.025 C 
ENDROOT
TORSDOF 0
ENDMDL
MODEL 6
REMARK VINA RESULT:    -7.017      9.620     11.253
REMARK INTER + INTRA:          -7.017
REMARK INTER:                  -7.017
REMARK INTRA:                   0.000
REMARK UNBOUND:                 0.000
REMARK  0 active torsions:
REMARK  status: ('A' for Active; 'I' for Inactive)
ROOT
ATOM      1  C1  <0> d          20.057  48.929  18.887  0.00  0.00     0.021 C 
ATOM      2  C2  <0> d          19.235  47.646  18.737  0.00  0.00     0.088 C 
ATOM      3  C3  <0> d          17.994  47.903  17.851  0.00  0.00     0.033 C 
ATOM      4  C4  <0> d          17.741  49.409  17.772  0.00  0.00     0.010 C 
ATOM      5  C5  <0> d          16.506  49.639  16.903  0.00  0.00     0.018 C 
ATOM      6  C6  <0> d          15.277  49.054  17.524  0.00  0.00     0.000 C 
ATOM      7  C7  <0> d          14.448  50.143  18.157  0.00  0.00    -0.009 C 
ATOM      8  C8  <0> d          13.430  49.778  18.958  0.00  0.00     0.052 C 
ATOM      9  C9  <0> d          13.266  48.311  19.143  0.00  0.00     0.177 C 
ATOM     10  O1  <0> d          12.176  47.771  19.167  0.00  0.00    -0.288 OA
ATOM     11  C10 <0> d          14.537  47.556  19.297  0.00  0.00    -0.006 C 
ATOM     12  C11 <0> d          15.552  47.949  18.491  0.00  0.00    -0.029 C 
ATOM     13  C12 <0> d          16.857  47.231  18.633  0.00  0.00     0.167 C 
ATOM     14  O2  <0> d          17.293  47.261  20.025  0.00  0.00    -0.311 OA
ATOM     15  C13 <0> d          18.631  47.216  20.085  0.00  0.00     0.263 C 
ATOM     16  O3  <0> d          19.272  46.882  21.053  0.00  0.00    -0.265 OA
ATOM     17  C14 <0> d          14.687  46.428  20.286  0.00  0.00     0.052 C 
ATOM     18  C15 <0> d          14.440  48.459  16.389  0.00  0.00     0.025 C 
ENDROOT
TORSDOF 0
ENDMDL
MODEL 7
REMARK VINA RESULT:    -6.713     11.716     13.989
REMARK INTER + INTRA:          -6.713
REMARK INTER:                  -6.713
REMARK INTRA:                   0.000
REMARK UNBOUND:                 0.000
REMARK  0 active torsions:
REMARK  status: ('A' for Active; 'I' for Inactive)
ROOT
ATOM      1  C1  <0> d          15.008  47.874  18.426  0.00  0.00     0.021 C 
ATOM      2  C2  <0> d          15.506  47.601  19.847  0.00  0.00     0.088 C 
ATOM      3  C3  <0> d          16.975  48.057  19.999  0.00  0.00     0.033 C 
ATOM      4  C4  <0> d          17.593  48.219  18.610  0.00  0.00     0.010 C 
ATOM      5  C5  <0> d          19.046  48.658  18.783  0.00  0.00     0.018 C 
ATOM      6  C6  <0> d          19.862  47.609  19.469  0.00  0.00     0.000 C 
ATOM      7  C7  <0> d          20.704  46.868  18.462  0.00  0.00    -0.009 C 
ATOM      8  C8  <0> d          21.325  45.742  18.862  0.00  0.00     0.052 C 
ATOM      9  C9  <0> d          21.072  45.349  20.274  0.00  0.00     0.177 C 
ATOM     10  O1  <0> d          21.945  44.910  20.999  0.00  0.00    -0.288 OA
ATOM     11  C10 <0> d          19.669  45.533  20.731  0.00  0.00    -0.006 C 
ATOM     12  C11 <0> d          19.060  46.666  20.304  0.00  0.00    -0.029 C 
ATOM     13  C12 <0> d          17.638  46.876  20.721  0.00  0.00     0.167 C 
ATOM     14  O2  <0> d          16.835  45.715  20.355  0.00  0.00    -0.311 OA
ATOM     15  C13 <0> d          15.568  46.090  20.130  0.00  0.00     0.263 C 
ATOM     16  O3  <0> d          14.611  45.353  20.153  0.00  0.00    -0.265 OA
ATOM     17  C14 <0> d          18.972  44.527  21.608  0.00  0.00     0.052 C 
ATOM     18  C15 <0> d          20.827  48.333  20.410  0.00  0.00     0.025 C 
ENDROOT
TORSDOF 0
ENDMDL
MODEL 8
REMARK VINA RESULT:    -6.586     11.464     13.174
REMARK INTER + INTRA:          -6.586
REMARK INTER:                  -6.586
REMARK INTRA:                   0.000
REMARK UNBOUND:                 0.000
REMARK  0 active torsions:
REMARK  status: ('A' for Active; 'I' for Inactive)
ROOT
ATOM      1  C1  <0> d          21.696  48.800  19.073  0.00  0.00     0.021 C 
ATOM      2  C2  <0> d          21.135  47.385  18.920  0.00  0.00     0.088 C 
ATOM      3  C3  <0> d          19.644  47.437  18.516  0.00  0.00     0.033 C 
ATOM      4  C4  <0> d          19.094  48.830  18.821  0.00  0.00     0.010 C 
ATOM      5  C5  <0> d          17.619  48.856  18.425  0.00  0.00     0.018 C 
ATOM      6  C6  <0> d          16.808  47.911  19.254  0.00  0.00     0.000 C 
ATOM      7  C7  <0> d          16.047  48.671  20.311  0.00  0.00    -0.009 C 
ATOM      8  C8  <0> d          15.448  47.966  21.289  0.00  0.00     0.052 C 
ATOM      9  C9  <0> d          15.643  46.492  21.215  0.00  0.00     0.177 C 
ATOM     10  O1  <0> d          14.750  45.701  21.455  0.00  0.00    -0.288 OA
ATOM     11  C10 <0> d          17.012  46.063  20.828  0.00  0.00    -0.006 C 
ATOM     12  C11 <0> d          17.600  46.795  19.852  0.00  0.00    -0.029 C 
ATOM     13  C12 <0> d          18.989  46.411  19.450  0.00  0.00     0.167 C 
ATOM     14  O2  <0> d          19.853  46.369  20.625  0.00  0.00    -0.311 OA
ATOM     15  C13 <0> d          21.116  46.650  20.272  0.00  0.00     0.263 C 
ATOM     16  O3  <0> d          22.097  46.364  20.917  0.00  0.00    -0.265 OA
ATOM     17  C14 <0> d          17.700  44.891  21.479  0.00  0.00     0.052 C 
ATOM     18  C15 <0> d          15.769  47.278  18.325  0.00  0.00     0.025 C 
ENDROOT
TORSDOF 0
ENDMDL
MODEL 9
REMARK VINA RESULT:    -6.582      9.944     12.899
REMARK INTER + INTRA:          -6.582
REMARK INTER:                  -6.582
REMARK INTRA:                   0.000
REMARK UNBOUND:                 0.000
REMARK  0 active torsions:
REMARK  status: ('A' for Active; 'I' for Inactive)
ROOT
ATOM      1  C1  <0> d          18.826  43.778  21.419  0.00  0.00     0.021 C 
ATOM      2  C2  <0> d          19.250  45.243  21.543  0.00  0.00     0.088 C 
ATOM      3  C3  <0> d          18.020  46.171  21.423  0.00  0.00     0.033 C 
ATOM      4  C4  <0> d          16.867  45.391  20.792  0.00  0.00     0.010 C 
ATOM      5  C5  <0> d          15.667  46.329  20.672  0.00  0.00     0.018 C 
ATOM      6  C6  <0> d          15.945  47.465  19.740  0.00  0.00     0.000 C 
ATOM      7  C7  <0> d          15.280  47.217  18.409  0.00  0.00    -0.009 C 
ATOM      8  C8  <0> d          15.611  48.017  17.378  0.00  0.00     0.052 C 
ATOM      9  C9  <0> d          16.635  49.052  17.685  0.00  0.00     0.177 C 
ATOM     10  O1  <0> d          16.566  50.189  17.259  0.00  0.00    -0.288 OA
ATOM     11  C10 <0> d          17.751  48.587  18.550  0.00  0.00    -0.006 C 
ATOM     12  C11 <0> d          17.397  47.772  19.573  0.00  0.00    -0.029 C 
ATOM     13  C12 <0> d          18.494  47.262  20.453  0.00  0.00     0.167 C 
ATOM     14  O2  <0> d          19.523  46.619  19.643  0.00  0.00    -0.311 OA
ATOM     15  C13 <0> d          20.135  45.664  20.357  0.00  0.00     0.263 C 
ATOM     16  O3  <0> d          21.224  45.203  20.111  0.00  0.00    -0.265 OA
ATOM     17  C14 <0> d          19.181  48.995  18.306  0.00  0.00     0.052 C 
ATOM     18  C15 <0> d          15.289  48.711  20.341  0.00  0.00     0.025 C 
ENDROOT
TORSDOF 0
ENDMDL
