MODEL 1
REMARK VINA RESULT:    -5.991      0.000      0.000
REMARK INTER + INTRA:          -6.489
REMARK INTER:                  -6.307
REMARK INTRA:                  -0.182
REMARK UNBOUND:                 0.028
REMARK  2 active torsions:
REMARK  status: ('A' for Active; 'I' for Inactive)
REMARK       I    between atoms: C2_2  and  N1_4 
REMARK    1  A    between atoms: C4_6  and  O4_12 
REMARK    2  A    between atoms: C6_8  and  C7_9 
ROOT
ATOM      1  C1  <0> d          15.558  58.922  12.812  0.00  0.00     0.117 C 
ATOM      2  C2  <0> d          16.618  57.916  13.180  0.00  0.00     0.216 C 
ATOM      3  O1  <0> d          17.287  58.078  14.178  0.00  0.00    -0.274 OA
ATOM      4  N1  <0> d          16.822  56.836  12.400  0.00  0.00    -0.335 N 
ATOM      5  C3  <0> d          16.088  56.519  11.161  0.00  0.00     0.158 C 
ATOM      6  C4  <0> d          17.047  55.612  10.352  0.00  0.00     0.138 C 
ATOM      7  C5  <0> d          17.703  54.771  11.479  0.00  0.00     0.070 C 
ATOM      8  C6  <0> d          17.817  55.781  12.639  0.00  0.00     0.190 C 
ENDROOT
BRANCH   8   9
ATOM      9  C7  <0> d          17.528  55.091  13.947  0.00  0.00     0.197 C 
ATOM     10  O2  <0> d          18.391  55.025  14.806  0.00  0.00    -0.646 OA
ATOM     11  O3  <0> d          16.429  54.600  14.147  0.00  0.00    -0.646 OA
ENDBRANCH   8   9
BRANCH   6  12
ATOM     12  O4  <0> d          16.321  54.778   9.447  0.00  0.00    -0.394 OA
ATOM     13  H10 <0> d          15.993  55.241   8.663  0.00  0.00     0.210 HD
ENDBRANCH   6  12
TORSDOF 2
ENDMDL
MODEL 2
REMARK VINA RESULT:    -5.844      1.564      3.438
REMARK INTER + INTRA:          -6.329
REMARK INTER:                  -6.155
REMARK INTRA:                  -0.174
REMARK UNBOUND:                 0.028
REMARK  2 active torsions:
REMARK  status: ('A' for Active; 'I' for Inactive)
REMARK       I    between atoms: C2_2  and  N1_4 
REMARK    1  A    between atoms: C4_6  and  O4_12 
REMARK    2  A    between atoms: C6_8  and  C7_9 
ROOT
ATOM      1  C1  <0> d          14.577  58.747  12.816  0.00  0.00     0.117 C 
ATOM      2  C2  <0> d          14.954  57.410  12.232  0.00  0.00     0.216 C 
ATOM      3  O1  <0> d          14.203  56.853  11.459  0.00  0.00    -0.274 OA
ATOM      4  N1  <0> d          16.124  56.832  12.570  0.00  0.00    -0.335 N 
ATOM      5  C3  <0> d          17.123  57.393  13.499  0.00  0.00     0.158 C 
ATOM      6  C4  <0> d          17.911  56.166  14.021  0.00  0.00     0.138 C 
ATOM      7  C5  <0> d          17.977  55.276  12.752  0.00  0.00     0.070 C 
ATOM      8  C6  <0> d          16.614  55.536  12.078  0.00  0.00     0.190 C 
ENDROOT
BRANCH   8   9
ATOM      9  C7  <0> d          16.785  55.588  10.582  0.00  0.00     0.197 C 
ATOM     10  O2  <0> d          17.427  56.490  10.072  0.00  0.00    -0.646 OA
ATOM     11  O3  <0> d          16.282  54.726   9.880  0.00  0.00    -0.646 OA
ENDBRANCH   8   9
BRANCH   6  12
ATOM     12  O4  <0> d          19.220  56.544  14.450  0.00  0.00    -0.394 OA
ATOM     13  H10 <0> d          19.741  56.997  13.772  0.00  0.00     0.210 HD
ENDBRANCH   6  12
TORSDOF 2
ENDMDL
MODEL 3
REMARK VINA RESULT:    -5.392      2.139      3.448
REMARK INTER + INTRA:          -5.837
REMARK INTER:                  -5.656
REMARK INTRA:                  -0.181
REMARK UNBOUND:                 0.028
REMARK  2 active torsions:
REMARK  status: ('A' for Active; 'I' for Inactive)
REMARK       I    between atoms: C2_2  and  N1_4 
REMARK    1  A    between atoms: C4_6  and  O4_12 
REMARK    2  A    between atoms: C6_8  and  C7_9 
ROOT
ATOM      1  C1  <0> d          15.533  57.405  12.056  0.00  0.00     0.117 C 
ATOM      2  C2  <0> d          15.732  56.027  12.633  0.00  0.00     0.216 C 
ATOM      3  O1  <0> d          14.890  55.170  12.462  0.00  0.00    -0.274 OA
ATOM      4  N1  <0> d          16.846  55.745  13.339  0.00  0.00    -0.335 N 
ATOM      5  C3  <0> d          17.942  56.689  13.626  0.00  0.00     0.158 C 
ATOM      6  C4  <0> d          18.613  56.138  14.909  0.00  0.00     0.138 C 
ATOM      7  C5  <0> d          18.522  54.607  14.674  0.00  0.00     0.070 C 
ATOM      8  C6  <0> d          17.166  54.449  13.955  0.00  0.00     0.190 C 
ENDROOT
BRANCH   8   9
ATOM      9  C7  <0> d          17.273  53.389  12.890  0.00  0.00     0.197 C 
ATOM     10  O2  <0> d          18.087  53.508  11.990  0.00  0.00    -0.646 OA
ATOM     11  O3  <0> d          16.545  52.411  12.928  0.00  0.00    -0.646 OA
ENDBRANCH   8   9
BRANCH   6  12
ATOM     12  O4  <0> d          19.975  56.562  14.997  0.00  0.00    -0.394 OA
ATOM     13  H10 <0> d          20.221  57.232  14.344  0.00  0.00     0.210 HD
ENDBRANCH   6  12
TORSDOF 2
ENDMDL
MODEL 4
REMARK VINA RESULT:    -5.356      2.068      3.747
REMARK INTER + INTRA:          -5.797
REMARK INTER:                  -5.628
REMARK INTRA:                  -0.169
REMARK UNBOUND:                 0.028
REMARK  2 active torsions:
REMARK  status: ('A' for Active; 'I' for Inactive)
REMARK       I    between atoms: C2_2  and  N1_4 
REMARK    1  A    between atoms: C4_6  and  O4_12 
REMARK    2  A    between atoms: C6_8  and  C7_9 
ROOT
ATOM      1  C1  <0> d          18.936  56.899  14.671  0.00  0.00     0.117 C 
ATOM      2  C2  <0> d          17.775  56.575  13.765  0.00  0.00     0.216 C 
ATOM      3  O1  <0> d          17.359  57.411  12.990  0.00  0.00    -0.274 OA
ATOM      4  N1  <0> d          17.200  55.357  13.815  0.00  0.00    -0.335 N 
ATOM      5  C3  <0> d          17.599  54.255  14.709  0.00  0.00     0.158 C 
ATOM      6  C4  <0> d          16.331  53.376  14.845  0.00  0.00     0.138 C 
ATOM      7  C5  <0> d          15.738  53.462  13.414  0.00  0.00     0.070 C 
ATOM      8  C6  <0> d          16.066  54.910  12.993  0.00  0.00     0.190 C 
ENDROOT
BRANCH   8   9
ATOM      9  C7  <0> d          16.446  54.945  11.535  0.00  0.00     0.197 C 
ATOM     10  O2  <0> d          15.848  55.680  10.767  0.00  0.00    -0.646 OA
ATOM     11  O3  <0> d          17.352  54.239  11.124  0.00  0.00    -0.646 OA
ENDBRANCH   8   9
BRANCH   6  12
ATOM     12  O4  <0> d          16.675  52.028  15.176  0.00  0.00    -0.394 OA
ATOM     13  H10 <0> d          15.975  51.387  14.990  0.00  0.00     0.210 HD
ENDBRANCH   6  12
TORSDOF 2
ENDMDL
MODEL 5
REMARK VINA RESULT:    -5.309      2.484      3.698
REMARK INTER + INTRA:          -5.746
REMARK INTER:                  -5.588
REMARK INTRA:                  -0.158
REMARK UNBOUND:                 0.028
REMARK  2 active torsions:
REMARK  status: ('A' for Active; 'I' for Inactive)
REMARK       I    between atoms: C2_2  and  N1_4 
REMARK    1  A    between atoms: C4_6  and  O4_12 
REMARK    2  A    between atoms: C6_8  and  C7_9 
ROOT
ATOM      1  C1  <0> d          15.320  53.145  14.975  0.00  0.00     0.117 C 
ATOM      2  C2  <0> d          16.105  54.308  14.426  0.00  0.00     0.216 C 
ATOM      3  O1  <0> d          17.261  54.470  14.756  0.00  0.00    -0.274 OA
ATOM      4  N1  <0> d          15.523  55.170  13.568  0.00  0.00    -0.335 N 
ATOM      5  C3  <0> d          14.131  55.096  13.089  0.00  0.00     0.158 C 
ATOM      6  C4  <0> d          13.775  56.546  12.680  0.00  0.00     0.138 C 
ATOM      7  C5  <0> d          15.115  57.036  12.072  0.00  0.00     0.070 C 
ATOM      8  C6  <0> d          16.169  56.341  12.959  0.00  0.00     0.190 C 
ENDROOT
BRANCH   8   9
ATOM      9  C7  <0> d          17.337  55.901  12.115  0.00  0.00     0.197 C 
ATOM     10  O2  <0> d          17.150  55.213  11.126  0.00  0.00    -0.646 OA
ATOM     11  O3  <0> d          18.470  56.235  12.420  0.00  0.00    -0.646 OA
ENDBRANCH   8   9
BRANCH   6  12
ATOM     12  O4  <0> d          12.732  56.562  11.702  0.00  0.00    -0.394 OA
ATOM     13  H10 <0> d          12.963  57.033  10.889  0.00  0.00     0.210 HD
ENDBRANCH   6  12
TORSDOF 2
ENDMDL
MODEL 6
REMARK VINA RESULT:    -5.223      2.435      3.124
REMARK INTER + INTRA:          -5.653
REMARK INTER:                  -5.480
REMARK INTRA:                  -0.173
REMARK UNBOUND:                 0.028
REMARK  2 active torsions:
REMARK  status: ('A' for Active; 'I' for Inactive)
REMARK       I    between atoms: C2_2  and  N1_4 
REMARK    1  A    between atoms: C4_6  and  O4_12 
REMARK    2  A    between atoms: C6_8  and  C7_9 
ROOT
ATOM      1  C1  <0> d          18.892  56.626  14.526  0.00  0.00     0.117 C 
ATOM      2  C2  <0> d          18.218  55.291  14.345  0.00  0.00     0.216 C 
ATOM      3  O1  <0> d          18.773  54.276  14.712  0.00  0.00    -0.274 OA
ATOM      4  N1  <0> d          16.999  55.223  13.775  0.00  0.00    -0.335 N 
ATOM      5  C3  <0> d          16.216  56.370  13.280  0.00  0.00     0.158 C 
ATOM      6  C4  <0> d          15.267  55.772  12.214  0.00  0.00     0.138 C 
ATOM      7  C5  <0> d          14.913  54.400  12.846  0.00  0.00     0.070 C 
ATOM      8  C6  <0> d          16.230  53.992  13.539  0.00  0.00     0.190 C 
ENDROOT
BRANCH   8   9
ATOM      9  C7  <0> d          15.929  53.316  14.851  0.00  0.00     0.197 C 
ATOM     10  O2  <0> d          16.354  52.195  15.071  0.00  0.00    -0.646 OA
ATOM     11  O3  <0> d          15.261  53.892  15.694  0.00  0.00    -0.646 OA
ENDBRANCH   8   9
BRANCH   6  12
ATOM     12  O4  <0> d          14.098  56.580  12.057  0.00  0.00    -0.394 OA
ATOM     13  H10 <0> d          13.556  56.646  12.856  0.00  0.00     0.210 HD
ENDBRANCH   6  12
TORSDOF 2
ENDMDL
MODEL 7
REMARK VINA RESULT:    -5.215      1.948      3.756
REMARK INTER + INTRA:          -5.644
REMARK INTER:                  -5.672
REMARK INTRA:                   0.028
REMARK UNBOUND:                 0.028
REMARK  2 active torsions:
REMARK  status: ('A' for Active; 'I' for Inactive)
REMARK       I    between atoms: C2_2  and  N1_4 
REMARK    1  A    between atoms: C4_6  and  O4_12 
REMARK    2  A    between atoms: C6_8  and  C7_9 
ROOT
ATOM      1  C1  <0> d          18.909  57.007  14.664  0.00  0.00     0.117 C 
ATOM      2  C2  <0> d          17.996  56.557  13.552  0.00  0.00     0.216 C 
ATOM      3  O1  <0> d          18.207  55.509  12.980  0.00  0.00    -0.274 OA
ATOM      4  N1  <0> d          16.945  57.321  13.193  0.00  0.00    -0.335 N 
ATOM      5  C3  <0> d          16.576  58.615  13.797  0.00  0.00     0.158 C 
ATOM      6  C4  <0> d          15.763  59.347  12.701  0.00  0.00     0.138 C 
ATOM      7  C5  <0> d          14.973  58.173  12.065  0.00  0.00     0.070 C 
ATOM      8  C6  <0> d          15.979  57.005  12.131  0.00  0.00     0.190 C 
ENDROOT
BRANCH   8   9
ATOM      9  C7  <0> d          15.255  55.725  12.461  0.00  0.00     0.197 C 
ATOM     10  O2  <0> d          14.329  55.736  13.254  0.00  0.00    -0.646 OA
ATOM     11  O3  <0> d          15.595  54.679  11.933  0.00  0.00    -0.646 OA
ENDBRANCH   8   9
BRANCH   6  12
ATOM     12  O4  <0> d          14.877  60.308  13.277  0.00  0.00    -0.394 OA
ATOM     13  H10 <0> d          14.908  61.176  12.852  0.00  0.00     0.210 HD
ENDBRANCH   6  12
TORSDOF 2
ENDMDL
MODEL 8
REMARK VINA RESULT:    -5.202      1.573      2.121
REMARK INTER + INTRA:          -5.630
REMARK INTER:                  -5.446
REMARK INTRA:                  -0.184
REMARK UNBOUND:                 0.028
REMARK  2 active torsions:
REMARK  status: ('A' for Active; 'I' for Inactive)
REMARK       I    between atoms: C2_2  and  N1_4 
REMARK    1  A    between atoms: C4_6  and  O4_12 
REMARK    2  A    between atoms: C6_8  and  C7_9 
ROOT
ATOM      1  C1  <0> d          17.817  57.572  13.925  0.00  0.00     0.117 C 
ATOM      2  C2  <0> d          17.810  56.065  13.950  0.00  0.00     0.216 C 
ATOM      3  O1  <0> d          18.152  55.473  14.952  0.00  0.00    -0.274 OA
ATOM      4  N1  <0> d          17.423  55.374  12.859  0.00  0.00    -0.335 N 
ATOM      5  C3  <0> d          16.991  55.963  11.578  0.00  0.00     0.158 C 
ATOM      6  C4  <0> d          17.260  54.861  10.524  0.00  0.00     0.138 C 
ATOM      7  C5  <0> d          16.894  53.577  11.316  0.00  0.00     0.070 C 
ATOM      8  C6  <0> d          17.368  53.909  12.746  0.00  0.00     0.190 C 
ENDROOT
BRANCH   8   9
ATOM      9  C7  <0> d          16.391  53.355  13.750  0.00  0.00     0.197 C 
ATOM     10  O2  <0> d          15.233  53.735  13.748  0.00  0.00    -0.646 OA
ATOM     11  O3  <0> d          16.759  52.524  14.564  0.00  0.00    -0.646 OA
ENDBRANCH   8   9
BRANCH   6  12
ATOM     12  O4  <0> d          16.409  55.021   9.387  0.00  0.00    -0.394 OA
ATOM     13  H10 <0> d          16.608  54.415   8.659  0.00  0.00     0.210 HD
ENDBRANCH   6  12
TORSDOF 2
ENDMDL
MODEL 9
REMARK VINA RESULT:    -5.111      2.386      3.619
REMARK INTER + INTRA:          -5.532
REMARK INTER:                  -5.514
REMARK INTRA:                  -0.017
REMARK UNBOUND:                 0.028
REMARK  2 active torsions:
REMARK  status: ('A' for Active; 'I' for Inactive)
REMARK       I    between atoms: C2_2  and  N1_4 
REMARK    1  A    between atoms: C4_6  and  O4_12 
REMARK    2  A    between atoms: C6_8  and  C7_9 
ROOT
ATOM      1  C1  <0> d          13.341  56.289  12.804  0.00  0.00     0.117 C 
ATOM      2  C2  <0> d          14.755  55.879  12.479  0.00  0.00     0.216 C 
ATOM      3  O1  <0> d          15.327  56.374  11.531  0.00  0.00    -0.274 OA
ATOM      4  N1  <0> d          15.382  54.961  13.241  0.00  0.00    -0.335 N 
ATOM      5  C3  <0> d          14.805  54.278  14.413  0.00  0.00     0.158 C 
ATOM      6  C4  <0> d          15.605  52.957  14.536  0.00  0.00     0.138 C 
ATOM      7  C5  <0> d          17.030  53.418  14.131  0.00  0.00     0.070 C 
ATOM      8  C6  <0> d          16.753  54.471  13.038  0.00  0.00     0.190 C 
ENDROOT
BRANCH   8   9
ATOM      9  C7  <0> d          17.729  55.611  13.169  0.00  0.00     0.197 C 
ATOM     10  O2  <0> d          18.220  56.111  12.170  0.00  0.00    -0.646 OA
ATOM     11  O3  <0> d          18.028  56.035  14.273  0.00  0.00    -0.646 OA
ENDBRANCH   8   9
BRANCH   6  12
ATOM     12  O4  <0> d          15.586  52.470  15.879  0.00  0.00    -0.394 OA
ATOM     13  H10 <0> d          15.815  51.533  15.961  0.00  0.00     0.210 HD
ENDBRANCH   6  12
TORSDOF 2
ENDMDL
