MODEL 1
REMARK VINA RESULT:   -10.930      0.000      0.000
REMARK INTER + INTRA:         -14.655
REMARK INTER:                 -14.163
REMARK INTRA:                  -0.492
REMARK UNBOUND:                -0.531
REMARK  5 active torsions:
REMARK  status: ('A' for Active; 'I' for Inactive)
REMARK    1  A    between atoms: C8_1  and  N1_20 
REMARK    2  A    between atoms: N2_4  and  C13_8 
REMARK    3  A    between atoms: C13_8  and  C14_9 
REMARK    4  A    between atoms: C14_9  and  C15_10 
REMARK       I    between atoms: N1_20  and  C7_21 
REMARK    5  A    between atoms: C7_21  and  C4_24 
ROOT
ATOM      1  C8  <0> d          16.306  53.565  14.750  0.00  0.00     0.087 C 
ATOM      2  C9  <0> d          15.364  53.331  13.566  0.00  0.00     0.053 C 
ATOM      3  C10 <0> d          15.044  54.672  12.903  0.00  0.00     0.237 C 
ATOM      4  N2  <0> d          16.286  55.294  12.426  0.00  0.00    -0.071 N 
ATOM      5  C11 <0> d          17.164  55.588  13.564  0.00  0.00     0.237 C 
ATOM      6  C12 <0> d          17.565  54.281  14.254  0.00  0.00     0.053 C 
ATOM      7  H26 <0> d          16.755  54.665  11.794  0.00  0.00     0.279 HD
ENDROOT
BRANCH   4   8
ATOM      8  C13 <0> d          15.966  56.543  11.721  0.00  0.00     0.239 C 
BRANCH   8   9
ATOM      9  C14 <0> d          14.505  56.916  11.981  0.00  0.00     0.068 C 
BRANCH   9  10
ATOM     10  C15 <0> d          14.430  58.340  12.466  0.00  0.00    -0.029 A 
ATOM     11  C18 <0> d          13.320  59.274  12.259  0.00  0.00    -0.002 A 
ATOM     12  C17 <0> d          13.698  60.474  12.892  0.00  0.00     0.042 A 
ATOM     13  C19 <0> d          12.086  59.187  11.614  0.00  0.00     0.014 A 
ATOM     14  C22 <0> d          12.830  61.560  12.867  0.00  0.00     0.030 A 
ATOM     15  N3  <0> d          14.949  60.272  13.430  0.00  0.00    -0.365 N 
ATOM     16  C21 <0> d          11.620  61.454  12.216  0.00  0.00     0.002 A 
ATOM     17  C20 <0> d          11.250  60.268  11.597  0.00  0.00     0.001 A 
ATOM     18  C16 <0> d          15.368  58.996  13.168  0.00  0.00     0.096 A 
ATOM     19  H1  <0> d          15.457  60.935  13.923  0.00  0.00     0.165 HD
ENDBRANCH   9  10
ENDBRANCH   8   9
ENDBRANCH   4   8
BRANCH   1  20
ATOM     20  N1  <0> d          16.676  52.277  15.343  0.00  0.00    -0.352 N 
ATOM     21  H7  <0> d          17.571  51.925  15.217  0.00  0.00     0.163 HD
ATOM     22  C7  <0> d          15.774  51.585  16.066  0.00  0.00     0.252 C 
ATOM     23  O1  <0> d          14.654  52.027  16.225  0.00  0.00    -0.268 OA
BRANCH  22  24
ATOM     24  C4  <0> d          16.148  50.285  16.664  0.00  0.00     0.032 A 
ATOM     25  C5  <0> d          15.220  49.243  16.713  0.00  0.00     0.017 A 
ATOM     26  C6  <0> d          15.575  48.033  17.272  0.00  0.00     0.001 A 
ATOM     27  C1  <0> d          16.847  47.851  17.784  0.00  0.00     0.000 A 
ATOM     28  C2  <0> d          17.772  48.879  17.739  0.00  0.00     0.001 A 
ATOM     29  C3  <0> d          17.430  50.094  17.182  0.00  0.00     0.017 A 
ENDBRANCH  22  24
ENDBRANCH   1  20
TORSDOF 5
ENDMDL
MODEL 2
REMARK VINA RESULT:   -10.883      0.950      1.740
REMARK INTER + INTRA:         -14.594
REMARK INTER:                 -14.259
REMARK INTRA:                  -0.335
REMARK UNBOUND:                -0.531
REMARK  5 active torsions:
REMARK  status: ('A' for Active; 'I' for Inactive)
REMARK    1  A    between atoms: C8_1  and  N1_20 
REMARK    2  A    between atoms: N2_4  and  C13_8 
REMARK    3  A    between atoms: C13_8  and  C14_9 
REMARK    4  A    between atoms: C14_9  and  C15_10 
REMARK       I    between atoms: N1_20  and  C7_21 
REMARK    5  A    between atoms: C7_21  and  C4_24 
ROOT
ATOM      1  C8  <0> d          16.252  53.649  14.767  0.00  0.00     0.087 C 
ATOM      2  C9  <0> d          15.331  53.410  13.568  0.00  0.00     0.053 C 
ATOM      3  C10 <0> d          14.987  54.753  12.920  0.00  0.00     0.237 C 
ATOM      4  N2  <0> d          16.218  55.413  12.469  0.00  0.00    -0.071 N 
ATOM      5  C11 <0> d          17.074  55.710  13.622  0.00  0.00     0.237 C 
ATOM      6  C12 <0> d          17.499  54.404  14.298  0.00  0.00     0.053 C 
ATOM      7  H26 <0> d          16.710  54.804  11.833  0.00  0.00     0.279 HD
ENDROOT
BRANCH   4   8
ATOM      8  C13 <0> d          15.877  56.664  11.778  0.00  0.00     0.239 C 
BRANCH   8   9
ATOM      9  C14 <0> d          15.239  57.637  12.772  0.00  0.00     0.068 C 
BRANCH   9  10
ATOM     10  C15 <0> d          13.893  58.073  12.254  0.00  0.00    -0.029 A 
ATOM     11  C18 <0> d          13.312  59.414  12.356  0.00  0.00    -0.002 A 
ATOM     12  C17 <0> d          12.053  59.341  11.731  0.00  0.00     0.042 A 
ATOM     13  C19 <0> d          13.748  60.621  12.906  0.00  0.00     0.014 A 
ATOM     14  C22 <0> d          11.257  60.480  11.667  0.00  0.00     0.030 A 
ATOM     15  N3  <0> d          11.891  58.046  11.295  0.00  0.00    -0.365 N 
ATOM     16  C21 <0> d          11.704  61.659  12.224  0.00  0.00     0.002 A 
ATOM     17  C20 <0> d          12.947  61.726  12.836  0.00  0.00     0.001 A 
ATOM     18  C16 <0> d          12.997  57.305  11.615  0.00  0.00     0.096 A 
ATOM     19  H1  <0> d          11.109  57.708  10.831  0.00  0.00     0.165 HD
ENDBRANCH   9  10
ENDBRANCH   8   9
ENDBRANCH   4   8
BRANCH   1  20
ATOM     20  N1  <0> d          16.647  52.363  15.346  0.00  0.00    -0.352 N 
ATOM     21  H7  <0> d          17.555  52.040  15.237  0.00  0.00     0.163 HD
ATOM     22  C7  <0> d          15.748  51.629  16.030  0.00  0.00     0.252 C 
ATOM     23  O1  <0> d          14.610  52.032  16.167  0.00  0.00    -0.268 OA
BRANCH  22  24
ATOM     24  C4  <0> d          16.147  50.329  16.615  0.00  0.00     0.032 A 
ATOM     25  C5  <0> d          17.438  50.152  17.115  0.00  0.00     0.017 A 
ATOM     26  C6  <0> d          17.803  48.938  17.658  0.00  0.00     0.001 A 
ATOM     27  C1  <0> d          16.892  47.898  17.709  0.00  0.00     0.000 A 
ATOM     28  C2  <0> d          15.611  48.066  17.215  0.00  0.00     0.001 A 
ATOM     29  C3  <0> d          15.233  49.276  16.669  0.00  0.00     0.017 A 
ENDBRANCH  22  24
ENDBRANCH   1  20
TORSDOF 5
ENDMDL
MODEL 3
REMARK VINA RESULT:    -9.993      1.572      2.359
REMARK INTER + INTRA:         -13.444
REMARK INTER:                 -12.737
REMARK INTRA:                  -0.707
REMARK UNBOUND:                -0.531
REMARK  5 active torsions:
REMARK  status: ('A' for Active; 'I' for Inactive)
REMARK    1  A    between atoms: C8_1  and  N1_20 
REMARK    2  A    between atoms: N2_4  and  C13_8 
REMARK    3  A    between atoms: C13_8  and  C14_9 
REMARK    4  A    between atoms: C14_9  and  C15_10 
REMARK       I    between atoms: N1_20  and  C7_21 
REMARK    5  A    between atoms: C7_21  and  C4_24 
ROOT
ATOM      1  C8  <0> d          15.936  52.252  15.070  0.00  0.00     0.087 C 
ATOM      2  C9  <0> d          15.740  53.731  15.415  0.00  0.00     0.053 C 
ATOM      3  C10 <0> d          16.577  54.587  14.463  0.00  0.00     0.237 C 
ATOM      4  N2  <0> d          16.152  54.346  13.079  0.00  0.00    -0.071 N 
ATOM      5  C11 <0> d          16.405  52.947  12.718  0.00  0.00     0.237 C 
ATOM      6  C12 <0> d          15.559  52.027  13.603  0.00  0.00     0.053 C 
ATOM      7  H26 <0> d          15.167  54.543  12.993  0.00  0.00     0.279 HD
ENDROOT
BRANCH   4   8
ATOM      8  C13 <0> d          16.905  55.227  12.176  0.00  0.00     0.239 C 
BRANCH   8   9
ATOM      9  C14 <0> d          15.936  56.167  11.456  0.00  0.00     0.068 C 
BRANCH   9  10
ATOM     10  C15 <0> d          15.779  57.435  12.255  0.00  0.00    -0.029 A 
ATOM     11  C18 <0> d          14.601  58.304  12.289  0.00  0.00    -0.002 A 
ATOM     12  C17 <0> d          14.917  59.354  13.171  0.00  0.00     0.042 A 
ATOM     13  C19 <0> d          13.352  58.270  11.666  0.00  0.00     0.014 A 
ATOM     14  C22 <0> d          13.974  60.348  13.412  0.00  0.00     0.030 A 
ATOM     15  N3  <0> d          16.197  59.132  13.624  0.00  0.00    -0.365 N 
ATOM     16  C21 <0> d          12.751  60.300  12.779  0.00  0.00     0.002 A 
ATOM     17  C20 <0> d          12.443  59.260  11.913  0.00  0.00     0.001 A 
ATOM     18  C16 <0> d          16.695  57.984  13.069  0.00  0.00     0.096 A 
ATOM     19  H1  <0> d          16.676  59.703  14.245  0.00  0.00     0.165 HD
ENDBRANCH   9  10
ENDBRANCH   8   9
ENDBRANCH   4   8
BRANCH   1  20
ATOM     20  N1  <0> d          15.078  51.431  15.927  0.00  0.00    -0.352 N 
ATOM     21  H7  <0> d          14.120  51.587  15.947  0.00  0.00     0.163 HD
ATOM     22  C7  <0> d          15.619  50.459  16.687  0.00  0.00     0.252 C 
ATOM     23  O1  <0> d          16.818  50.263  16.663  0.00  0.00    -0.268 OA
BRANCH  22  24
ATOM     24  C4  <0> d          14.752  49.630  17.554  0.00  0.00     0.032 A 
ATOM     25  C5  <0> d          15.319  48.693  18.420  0.00  0.00     0.017 A 
ATOM     26  C6  <0> d          14.505  47.923  19.225  0.00  0.00     0.001 A 
ATOM     27  C1  <0> d          13.131  48.078  19.176  0.00  0.00     0.000 A 
ATOM     28  C2  <0> d          12.563  49.005  18.320  0.00  0.00     0.001 A 
ATOM     29  C3  <0> d          13.366  49.781  17.509  0.00  0.00     0.017 A 
ENDBRANCH  22  24
ENDBRANCH   1  20
TORSDOF 5
ENDMDL
MODEL 4
REMARK VINA RESULT:    -9.896      2.025      9.921
REMARK INTER + INTRA:         -13.319
REMARK INTER:                 -13.159
REMARK INTRA:                  -0.160
REMARK UNBOUND:                -0.531
REMARK  5 active torsions:
REMARK  status: ('A' for Active; 'I' for Inactive)
REMARK    1  A    between atoms: C8_1  and  N1_20 
REMARK    2  A    between atoms: N2_4  and  C13_8 
REMARK    3  A    between atoms: C13_8  and  C14_9 
REMARK    4  A    between atoms: C14_9  and  C15_10 
REMARK       I    between atoms: N1_20  and  C7_21 
REMARK    5  A    between atoms: C7_21  and  C4_24 
ROOT
ATOM      1  C8  <0> d          15.250  55.885  12.889  0.00  0.00     0.087 C 
ATOM      2  C9  <0> d          14.256  55.045  13.697  0.00  0.00     0.053 C 
ATOM      3  C10 <0> d          14.781  53.613  13.811  0.00  0.00     0.237 C 
ATOM      4  N2  <0> d          16.083  53.618  14.489  0.00  0.00    -0.071 N 
ATOM      5  C11 <0> d          17.060  54.359  13.684  0.00  0.00     0.237 C 
ATOM      6  C12 <0> d          16.622  55.822  13.564  0.00  0.00     0.053 C 
ATOM      7  H26 <0> d          15.989  54.057  15.392  0.00  0.00     0.279 HD
ENDROOT
BRANCH   4   8
ATOM      8  C13 <0> d          16.546  52.235  14.666  0.00  0.00     0.239 C 
BRANCH   8   9
ATOM      9  C14 <0> d          15.354  51.336  15.000  0.00  0.00     0.068 C 
BRANCH   9  10
ATOM     10  C15 <0> d          15.690  50.478  16.191  0.00  0.00    -0.029 A 
ATOM     11  C18 <0> d          14.739  49.863  17.119  0.00  0.00    -0.002 A 
ATOM     12  C17 <0> d          15.513  49.157  18.060  0.00  0.00     0.042 A 
ATOM     13  C19 <0> d          13.347  49.855  17.218  0.00  0.00     0.014 A 
ATOM     14  C22 <0> d          14.876  48.457  19.079  0.00  0.00     0.030 A 
ATOM     15  N3  <0> d          16.834  49.347  17.722  0.00  0.00    -0.365 N 
ATOM     16  C21 <0> d          13.500  48.470  19.162  0.00  0.00     0.002 A 
ATOM     17  C20 <0> d          12.741  49.164  18.230  0.00  0.00     0.001 A 
ATOM     18  C16 <0> d          16.920  50.135  16.606  0.00  0.00     0.096 A 
ATOM     19  H1  <0> d          17.590  48.976  18.203  0.00  0.00     0.165 HD
ENDBRANCH   9  10
ENDBRANCH   8   9
ENDBRANCH   4   8
BRANCH   1  20
ATOM     20  N1  <0> d          14.791  57.275  12.840  0.00  0.00    -0.352 N 
ATOM     21  H7  <0> d          15.338  57.980  13.219  0.00  0.00     0.163 HD
ATOM     22  C7  <0> d          13.609  57.574  12.266  0.00  0.00     0.252 C 
ATOM     23  O1  <0> d          12.923  56.691  11.790  0.00  0.00    -0.268 OA
BRANCH  22  24
ATOM     24  C4  <0> d          13.145  58.978  12.217  0.00  0.00     0.032 A 
ATOM     25  C5  <0> d          12.030  59.321  11.450  0.00  0.00     0.017 A 
ATOM     26  C6  <0> d          11.603  60.632  11.409  0.00  0.00     0.001 A 
ATOM     27  C1  <0> d          12.276  61.605  12.125  0.00  0.00     0.000 A 
ATOM     28  C2  <0> d          13.382  61.272  12.888  0.00  0.00     0.001 A 
ATOM     29  C3  <0> d          13.820  59.964  12.937  0.00  0.00     0.017 A 
ENDBRANCH  22  24
ENDBRANCH   1  20
TORSDOF 5
ENDMDL
MODEL 5
REMARK VINA RESULT:    -9.843      1.692      2.691
REMARK INTER + INTRA:         -13.251
REMARK INTER:                 -12.869
REMARK INTRA:                  -0.382
REMARK UNBOUND:                -0.531
REMARK  5 active torsions:
REMARK  status: ('A' for Active; 'I' for Inactive)
REMARK    1  A    between atoms: C8_1  and  N1_20 
REMARK    2  A    between atoms: N2_4  and  C13_8 
REMARK    3  A    between atoms: C13_8  and  C14_9 
REMARK    4  A    between atoms: C14_9  and  C15_10 
REMARK       I    between atoms: N1_20  and  C7_21 
REMARK    5  A    between atoms: C7_21  and  C4_24 
ROOT
ATOM      1  C8  <0> d          15.933  52.133  15.158  0.00  0.00     0.087 C 
ATOM      2  C9  <0> d          15.559  53.596  15.415  0.00  0.00     0.053 C 
ATOM      3  C10 <0> d          16.317  54.491  14.432  0.00  0.00     0.237 C 
ATOM      4  N2  <0> d          15.957  54.127  13.056  0.00  0.00    -0.071 N 
ATOM      5  C11 <0> d          16.378  52.750  12.780  0.00  0.00     0.237 C 
ATOM      6  C12 <0> d          15.623  51.787  13.699  0.00  0.00     0.053 C 
ATOM      7  H26 <0> d          14.959  54.203  12.940  0.00  0.00     0.279 HD
ENDROOT
BRANCH   4   8
ATOM      8  C13 <0> d          16.627  55.040  12.120  0.00  0.00     0.239 C 
BRANCH   8   9
ATOM      9  C14 <0> d          16.493  56.478  12.625  0.00  0.00     0.068 C 
BRANCH   9  10
ATOM     10  C15 <0> d          15.111  56.991  12.316  0.00  0.00    -0.029 A 
ATOM     11  C18 <0> d          14.613  58.349  12.550  0.00  0.00    -0.002 A 
ATOM     12  C17 <0> d          13.278  58.356  12.103  0.00  0.00     0.042 A 
ATOM     13  C19 <0> d          15.175  59.511  13.079  0.00  0.00     0.014 A 
ATOM     14  C22 <0> d          12.535  59.528  12.194  0.00  0.00     0.030 A 
ATOM     15  N3  <0> d          12.997  57.089  11.645  0.00  0.00    -0.365 N 
ATOM     16  C21 <0> d          13.108  60.662  12.729  0.00  0.00     0.002 A 
ATOM     17  C20 <0> d          14.426  60.651  13.164  0.00  0.00     0.001 A 
ATOM     18  C16 <0> d          14.100  56.290  11.779  0.00  0.00     0.096 A 
ATOM     19  H1  <0> d          12.144  56.805  11.280  0.00  0.00     0.165 HD
ENDBRANCH   9  10
ENDBRANCH   8   9
ENDBRANCH   4   8
BRANCH   1  20
ATOM     20  N1  <0> d          15.154  51.266  16.044  0.00  0.00    -0.352 N 
ATOM     21  H7  <0> d          14.186  51.331  16.059  0.00  0.00     0.163 HD
ATOM     22  C7  <0> d          15.782  50.376  16.838  0.00  0.00     0.252 C 
ATOM     23  O1  <0> d          16.994  50.293  16.819  0.00  0.00    -0.268 OA
BRANCH  22  24
ATOM     24  C4  <0> d          14.994  49.500  17.733  0.00  0.00     0.032 A 
ATOM     25  C5  <0> d          15.594  48.391  18.333  0.00  0.00     0.017 A 
ATOM     26  C6  <0> d          14.854  47.578  19.166  0.00  0.00     0.001 A 
ATOM     27  C1  <0> d          13.522  47.860  19.410  0.00  0.00     0.000 A 
ATOM     28  C2  <0> d          12.921  48.958  18.819  0.00  0.00     0.001 A 
ATOM     29  C3  <0> d          13.650  49.779  17.982  0.00  0.00     0.017 A 
ENDBRANCH  22  24
ENDBRANCH   1  20
TORSDOF 5
ENDMDL
MODEL 6
REMARK VINA RESULT:    -9.411      3.702     11.566
REMARK INTER + INTRA:         -12.693
REMARK INTER:                 -12.143
REMARK INTRA:                  -0.550
REMARK UNBOUND:                -0.531
REMARK  5 active torsions:
REMARK  status: ('A' for Active; 'I' for Inactive)
REMARK    1  A    between atoms: C8_1  and  N1_20 
REMARK    2  A    between atoms: N2_4  and  C13_8 
REMARK    3  A    between atoms: C13_8  and  C14_9 
REMARK    4  A    between atoms: C14_9  and  C15_10 
REMARK       I    between atoms: N1_20  and  C7_21 
REMARK    5  A    between atoms: C7_21  and  C4_24 
ROOT
ATOM      1  C8  <0> d          16.013  50.959  15.813  0.00  0.00     0.087 C 
ATOM      2  C9  <0> d          14.686  51.167  16.549  0.00  0.00     0.053 C 
ATOM      3  C10 <0> d          14.196  49.824  17.095  0.00  0.00     0.237 C 
ATOM      4  N2  <0> d          15.191  49.276  18.023  0.00  0.00    -0.071 N 
ATOM      5  C11 <0> d          16.443  49.006  17.308  0.00  0.00     0.237 C 
ATOM      6  C12 <0> d          17.021  50.318  16.770  0.00  0.00     0.053 C 
ATOM      7  H26 <0> d          15.363  49.941  18.761  0.00  0.00     0.279 HD
ENDROOT
BRANCH   4   8
ATOM      8  C13 <0> d          14.682  48.026  18.603  0.00  0.00     0.239 C 
BRANCH   8   9
ATOM      9  C14 <0> d          14.829  48.072  20.125  0.00  0.00     0.068 C 
BRANCH   9  10
ATOM     10  C15 <0> d          15.575  46.850  20.595  0.00  0.00    -0.029 A 
ATOM     11  C18 <0> d          17.003  46.578  20.416  0.00  0.00    -0.002 A 
ATOM     12  C17 <0> d          17.240  45.329  21.018  0.00  0.00     0.042 A 
ATOM     13  C19 <0> d          18.056  47.273  19.817  0.00  0.00     0.014 A 
ATOM     14  C22 <0> d          18.527  44.802  21.011  0.00  0.00     0.030 A 
ATOM     15  N3  <0> d          16.036  44.883  21.514  0.00  0.00    -0.365 N 
ATOM     16  C21 <0> d          19.549  45.501  20.406  0.00  0.00     0.002 A 
ATOM     17  C20 <0> d          19.312  46.734  19.816  0.00  0.00     0.001 A 
ATOM     18  C16 <0> d          15.056  45.802  21.253  0.00  0.00     0.096 A 
ATOM     19  H1  <0> d          15.902  44.042  21.978  0.00  0.00     0.165 HD
ENDBRANCH   9  10
ENDBRANCH   8   9
ENDBRANCH   4   8
BRANCH   1  20
ATOM     20  N1  <0> d          16.526  52.252  15.354  0.00  0.00    -0.352 N 
ATOM     21  H7  <0> d          17.195  52.721  15.878  0.00  0.00     0.163 HD
ATOM     22  C7  <0> d          16.070  52.789  14.206  0.00  0.00     0.252 C 
ATOM     23  O1  <0> d          15.232  52.201  13.550  0.00  0.00    -0.268 OA
BRANCH  22  24
ATOM     24  C4  <0> d          16.588  54.095  13.743  0.00  0.00     0.032 A 
ATOM     25  C5  <0> d          17.716  54.654  14.345  0.00  0.00     0.017 A 
ATOM     26  C6  <0> d          18.194  55.872  13.909  0.00  0.00     0.001 A 
ATOM     27  C1  <0> d          17.559  56.538  12.876  0.00  0.00     0.000 A 
ATOM     28  C2  <0> d          16.440  55.989  12.274  0.00  0.00     0.001 A 
ATOM     29  C3  <0> d          15.952  54.772  12.702  0.00  0.00     0.017 A 
ENDBRANCH  22  24
ENDBRANCH   1  20
TORSDOF 5
ENDMDL
MODEL 7
REMARK VINA RESULT:    -9.373      1.892     10.226
REMARK INTER + INTRA:         -12.643
REMARK INTER:                 -12.341
REMARK INTRA:                  -0.303
REMARK UNBOUND:                -0.531
REMARK  5 active torsions:
REMARK  status: ('A' for Active; 'I' for Inactive)
REMARK    1  A    between atoms: C8_1  and  N1_20 
REMARK    2  A    between atoms: N2_4  and  C13_8 
REMARK    3  A    between atoms: C13_8  and  C14_9 
REMARK    4  A    between atoms: C14_9  and  C15_10 
REMARK       I    between atoms: N1_20  and  C7_21 
REMARK    5  A    between atoms: C7_21  and  C4_24 
ROOT
ATOM      1  C8  <0> d          15.094  56.044  12.658  0.00  0.00     0.087 C 
ATOM      2  C9  <0> d          14.167  55.148  13.483  0.00  0.00     0.053 C 
ATOM      3  C10 <0> d          14.718  53.720  13.490  0.00  0.00     0.237 C 
ATOM      4  N2  <0> d          16.061  53.713  14.081  0.00  0.00    -0.071 N 
ATOM      5  C11 <0> d          16.973  54.511  13.254  0.00  0.00     0.237 C 
ATOM      6  C12 <0> d          16.509  55.970  13.239  0.00  0.00     0.053 C 
ATOM      7  H26 <0> d          16.021  54.104  15.010  0.00  0.00     0.279 HD
ENDROOT
BRANCH   4   8
ATOM      8  C13 <0> d          16.554  52.331  14.156  0.00  0.00     0.239 C 
BRANCH   8   9
ATOM      9  C14 <0> d          16.908  51.994  15.606  0.00  0.00     0.068 C 
BRANCH   9  10
ATOM     10  C15 <0> d          16.071  50.829  16.069  0.00  0.00    -0.029 A 
ATOM     11  C18 <0> d          16.483  49.773  16.996  0.00  0.00    -0.002 A 
ATOM     12  C17 <0> d          15.375  48.916  17.129  0.00  0.00     0.042 A 
ATOM     13  C19 <0> d          17.659  49.503  17.697  0.00  0.00     0.014 A 
ATOM     14  C22 <0> d          15.466  47.807  17.962  0.00  0.00     0.030 A 
ATOM     15  N3  <0> d          14.374  49.421  16.329  0.00  0.00    -0.365 N 
ATOM     16  C21 <0> d          16.640  47.554  18.638  0.00  0.00     0.002 A 
ATOM     17  C20 <0> d          17.730  48.404  18.507  0.00  0.00     0.001 A 
ATOM     18  C16 <0> d          14.807  50.561  15.706  0.00  0.00     0.096 A 
ATOM     19  H1  <0> d          13.494  49.027  16.223  0.00  0.00     0.165 HD
ENDBRANCH   9  10
ENDBRANCH   8   9
ENDBRANCH   4   8
BRANCH   1  20
ATOM     20  N1  <0> d          14.614  57.426  12.710  0.00  0.00    -0.352 N 
ATOM     21  H7  <0> d          15.135  58.103  13.171  0.00  0.00     0.163 HD
ATOM     22  C7  <0> d          13.450  57.758  12.118  0.00  0.00     0.252 C 
ATOM     23  O1  <0> d          12.798  56.910  11.541  0.00  0.00    -0.268 OA
BRANCH  22  24
ATOM     24  C4  <0> d          12.965  59.154  12.172  0.00  0.00     0.032 A 
ATOM     25  C5  <0> d          11.812  59.523  11.476  0.00  0.00     0.017 A 
ATOM     26  C6  <0> d          11.365  60.827  11.530  0.00  0.00     0.001 A 
ATOM     27  C1  <0> d          12.056  61.768  12.272  0.00  0.00     0.000 A 
ATOM     28  C2  <0> d          13.200  61.410  12.964  0.00  0.00     0.001 A 
ATOM     29  C3  <0> d          13.657  60.109  12.918  0.00  0.00     0.017 A 
ENDBRANCH  22  24
ENDBRANCH   1  20
TORSDOF 5
ENDMDL
MODEL 8
REMARK VINA RESULT:    -9.103      3.958     11.109
REMARK INTER + INTRA:         -12.295
REMARK INTER:                 -11.811
REMARK INTRA:                  -0.484
REMARK UNBOUND:                -0.531
REMARK  5 active torsions:
REMARK  status: ('A' for Active; 'I' for Inactive)
REMARK    1  A    between atoms: C8_1  and  N1_20 
REMARK    2  A    between atoms: N2_4  and  C13_8 
REMARK    3  A    between atoms: C13_8  and  C14_9 
REMARK    4  A    between atoms: C14_9  and  C15_10 
REMARK       I    between atoms: N1_20  and  C7_21 
REMARK    5  A    between atoms: C7_21  and  C4_24 
ROOT
ATOM      1  C8  <0> d          16.063  50.983  15.802  0.00  0.00     0.087 C 
ATOM      2  C9  <0> d          14.757  51.252  16.555  0.00  0.00     0.053 C 
ATOM      3  C10 <0> d          14.211  49.934  17.107  0.00  0.00     0.237 C 
ATOM      4  N2  <0> d          15.191  49.339  18.023  0.00  0.00    -0.071 N 
ATOM      5  C11 <0> d          16.420  49.011  17.292  0.00  0.00     0.237 C 
ATOM      6  C12 <0> d          17.052  50.294  16.747  0.00  0.00     0.053 C 
ATOM      7  H26 <0> d          15.403  49.995  18.759  0.00  0.00     0.279 HD
ENDROOT
BRANCH   4   8
ATOM      8  C13 <0> d          14.631  48.114  18.610  0.00  0.00     0.239 C 
BRANCH   8   9
ATOM      9  C14 <0> d          15.722  47.045  18.698  0.00  0.00     0.068 C 
BRANCH   9  10
ATOM     10  C15 <0> d          16.506  47.232  19.971  0.00  0.00    -0.029 A 
ATOM     11  C18 <0> d          17.964  47.241  20.104  0.00  0.00    -0.002 A 
ATOM     12  C17 <0> d          18.230  47.450  21.470  0.00  0.00     0.042 A 
ATOM     13  C19 <0> d          19.021  47.097  19.204  0.00  0.00     0.014 A 
ATOM     14  C22 <0> d          19.549  47.512  21.906  0.00  0.00     0.030 A 
ATOM     15  N3  <0> d          17.014  47.549  22.109  0.00  0.00    -0.365 N 
ATOM     16  C21 <0> d          20.577  47.358  21.002  0.00  0.00     0.002 A 
ATOM     17  C20 <0> d          20.310  47.156  19.655  0.00  0.00     0.001 A 
ATOM     18  C16 <0> d          15.999  47.417  21.200  0.00  0.00     0.096 A 
ATOM     19  H1  <0> d          16.895  47.691  23.061  0.00  0.00     0.165 HD
ENDBRANCH   9  10
ENDBRANCH   8   9
ENDBRANCH   4   8
BRANCH   1  20
ATOM     20  N1  <0> d          16.631  52.250  15.337  0.00  0.00    -0.352 N 
ATOM     21  H7  <0> d          17.301  52.706  15.870  0.00  0.00     0.163 HD
ATOM     22  C7  <0> d          16.223  52.781  14.167  0.00  0.00     0.252 C 
ATOM     23  O1  <0> d          15.385  52.210  13.499  0.00  0.00    -0.268 OA
BRANCH  22  24
ATOM     24  C4  <0> d          16.797  54.062  13.697  0.00  0.00     0.032 A 
ATOM     25  C5  <0> d          16.432  54.578  12.453  0.00  0.00     0.017 A 
ATOM     26  C6  <0> d          16.970  55.772  12.021  0.00  0.00     0.001 A 
ATOM     27  C1  <0> d          17.869  56.458  12.818  0.00  0.00     0.000 A 
ATOM     28  C2  <0> d          18.235  55.952  14.053  0.00  0.00     0.001 A 
ATOM     29  C3  <0> d          17.704  54.759  14.497  0.00  0.00     0.017 A 
ENDBRANCH  22  24
ENDBRANCH   1  20
TORSDOF 5
ENDMDL
MODEL 9
REMARK VINA RESULT:    -9.008      3.771     11.158
REMARK INTER + INTRA:         -12.172
REMARK INTER:                 -11.641
REMARK INTRA:                  -0.531
REMARK UNBOUND:                -0.531
REMARK  5 active torsions:
REMARK  status: ('A' for Active; 'I' for Inactive)
REMARK    1  A    between atoms: C8_1  and  N1_20 
REMARK    2  A    between atoms: N2_4  and  C13_8 
REMARK    3  A    between atoms: C13_8  and  C14_9 
REMARK    4  A    between atoms: C14_9  and  C15_10 
REMARK       I    between atoms: N1_20  and  C7_21 
REMARK    5  A    between atoms: C7_21  and  C4_24 
ROOT
ATOM      1  C8  <0> d          15.889  51.287  16.166  0.00  0.00     0.087 C 
ATOM      2  C9  <0> d          16.942  50.244  16.551  0.00  0.00     0.053 C 
ATOM      3  C10 <0> d          16.505  49.534  17.834  0.00  0.00     0.237 C 
ATOM      4  N2  <0> d          15.213  48.871  17.616  0.00  0.00    -0.071 N 
ATOM      5  C11 <0> d          14.184  49.873  17.318  0.00  0.00     0.237 C 
ATOM      6  C12 <0> d          14.532  50.596  16.014  0.00  0.00     0.053 C 
ATOM      7  H26 <0> d          15.293  48.231  16.841  0.00  0.00     0.279 HD
ENDROOT
BRANCH   4   8
ATOM      8  C13 <0> d          14.836  48.127  18.825  0.00  0.00     0.239 C 
BRANCH   8   9
ATOM      9  C14 <0> d          15.757  46.917  18.987  0.00  0.00     0.068 C 
BRANCH   9  10
ATOM     10  C15 <0> d          16.718  47.166  20.121  0.00  0.00    -0.029 A 
ATOM     11  C18 <0> d          18.177  47.240  20.026  0.00  0.00    -0.002 A 
ATOM     12  C17 <0> d          18.640  47.492  21.332  0.00  0.00     0.042 A 
ATOM     13  C19 <0> d          19.089  47.119  18.976  0.00  0.00     0.014 A 
ATOM     14  C22 <0> d          20.006  47.619  21.558  0.00  0.00     0.030 A 
ATOM     15  N3  <0> d          17.534  47.554  22.149  0.00  0.00    -0.365 N 
ATOM     16  C21 <0> d          20.889  47.488  20.508  0.00  0.00     0.002 A 
ATOM     17  C20 <0> d          20.428  47.243  19.222  0.00  0.00     0.001 A 
ATOM     18  C16 <0> d          16.398  47.358  21.411  0.00  0.00     0.096 A 
ATOM     19  H1  <0> d          17.556  47.713  23.105  0.00  0.00     0.165 HD
ENDBRANCH   9  10
ENDBRANCH   8   9
ENDBRANCH   4   8
BRANCH   1  20
ATOM     20  N1  <0> d          16.264  51.917  14.898  0.00  0.00    -0.352 N 
ATOM     21  H7  <0> d          16.744  51.406  14.227  0.00  0.00     0.163 HD
ATOM     22  C7  <0> d          15.941  53.203  14.664  0.00  0.00     0.252 C 
ATOM     23  O1  <0> d          15.339  53.843  15.504  0.00  0.00    -0.268 OA
BRANCH  22  24
ATOM     24  C4  <0> d          16.320  53.839  13.383  0.00  0.00     0.032 A 
ATOM     25  C5  <0> d          17.239  53.216  12.536  0.00  0.00     0.017 A 
ATOM     26  C6  <0> d          17.587  53.815  11.343  0.00  0.00     0.001 A 
ATOM     27  C1  <0> d          17.028  55.028  10.984  0.00  0.00     0.000 A 
ATOM     28  C2  <0> d          16.117  55.651  11.819  0.00  0.00     0.001 A 
ATOM     29  C3  <0> d          15.760  55.063  13.015  0.00  0.00     0.017 A 
ENDBRANCH  22  24
ENDBRANCH   1  20
TORSDOF 5
ENDMDL
