MODEL 1
REMARK VINA RESULT:    -7.720      0.000      0.000
REMARK INTER + INTRA:          -9.310
REMARK INTER:                  -8.706
REMARK INTRA:                  -0.604
REMARK UNBOUND:                -0.236
REMARK  3 active torsions:
REMARK  status: ('A' for Active; 'I' for Inactive)
REMARK    1  A    between atoms: C6_1  and  N1_14 
REMARK    2  A    between atoms: N1_14  and  C5_16 
REMARK    3  A    between atoms: C5_16  and  C3_17 
ROOT
ATOM      1  C6  <0> d          15.844  54.881  12.936  0.00  0.00     0.133 A 
ATOM      2  C7  <0> d          17.015  55.253  13.618  0.00  0.00     0.122 A 
ATOM      3  C8  <0> d          17.571  54.339  14.528  0.00  0.00     0.138 A 
ATOM      4  N2  <0> d          18.688  54.948  15.042  0.00  0.00    -0.337 N 
ATOM      5  H1  <0> d          19.295  54.573  15.699  0.00  0.00     0.168 HD
ATOM      6  C9  <0> d          18.788  56.176  14.458  0.00  0.00     0.182 A 
ATOM      7  N3  <0> d          17.806  56.353  13.624  0.00  0.00    -0.346 N 
ATOM      8  H3  <0> d          17.655  57.190  13.061  1.00  0.00     0.167 HD
ATOM      9  N4  <0> d          16.975  53.164  14.710  0.00  0.00    -0.337 N 
ATOM     10  H4  <0> d          17.371  52.493  15.369  1.00  0.00     0.168 HD
ATOM     11  C10 <0> d          15.879  52.859  14.049  0.00  0.00     0.183 A 
ATOM     12  N5  <0> d          15.316  53.687  13.187  0.00  0.00    -0.337 N 
ATOM     13  H5  <0> d          14.462  53.406  12.707  1.00  0.00     0.168 HD
ENDROOT
BRANCH   1  14
ATOM     14  N1  <0> d          15.250  55.740  12.029  0.00  0.00    -0.368 N 
ATOM     15  H7  <0> d          15.617  55.832  11.136  0.00  0.00     0.161 HD
BRANCH  14  16
ATOM     16  C5  <0> d          14.068  56.513  12.417  0.00  0.00     0.186 C 
BRANCH  16  17
ATOM     17  C3  <0> d          14.471  57.938  12.701  0.00  0.00     0.070 A 
ATOM     18  O1  <0> d          15.730  58.387  12.831  0.00  0.00    -0.325 OA
ATOM     19  C4  <0> d          15.711  59.707  13.082  0.00  0.00     0.142 A 
ATOM     20  C1  <0> d          14.429  60.114  13.114  0.00  0.00     0.027 A 
ATOM     21  C2  <0> d          13.630  58.975  12.869  0.00  0.00     0.036 A 
ENDBRANCH  16  17
ENDBRANCH  14  16
ENDBRANCH   1  14
TORSDOF 3
ENDMDL
MODEL 2
REMARK VINA RESULT:    -7.415      1.811      2.409
REMARK INTER + INTRA:          -8.952
REMARK INTER:                  -8.713
REMARK INTRA:                  -0.238
REMARK UNBOUND:                -0.236
REMARK  3 active torsions:
REMARK  status: ('A' for Active; 'I' for Inactive)
REMARK    1  A    between atoms: C6_1  and  N1_14 
REMARK    2  A    between atoms: N1_14  and  C5_16 
REMARK    3  A    between atoms: C5_16  and  C3_17 
ROOT
ATOM      1  C6  <0> d          16.132  54.911  12.407  0.00  0.00     0.133 A 
ATOM      2  C7  <0> d          15.955  54.113  13.551  0.00  0.00     0.122 A 
ATOM      3  C8  <0> d          16.797  53.002  13.721  0.00  0.00     0.138 A 
ATOM      4  N2  <0> d          16.413  52.412  14.898  0.00  0.00    -0.337 N 
ATOM      5  H1  <0> d          16.803  51.619  15.297  0.00  0.00     0.168 HD
ATOM      6  C9  <0> d          15.382  53.146  15.404  0.00  0.00     0.182 A 
ATOM      7  N3  <0> d          15.115  54.143  14.613  0.00  0.00    -0.346 N 
ATOM      8  H3  <0> d          14.386  54.839  14.768  1.00  0.00     0.167 HD
ATOM      9  N4  <0> d          17.724  52.747  12.802  0.00  0.00    -0.337 N 
ATOM     10  H4  <0> d          18.341  51.942  12.916  1.00  0.00     0.168 HD
ATOM     11  C10 <0> d          17.853  53.522  11.746  0.00  0.00     0.183 A 
ATOM     12  N5  <0> d          17.081  54.574  11.540  0.00  0.00    -0.337 N 
ATOM     13  H5  <0> d          17.217  55.138  10.702  1.00  0.00     0.168 HD
ENDROOT
BRANCH   1  14
ATOM     14  N1  <0> d          15.331  56.017  12.186  0.00  0.00    -0.368 N 
ATOM     15  H7  <0> d          14.370  55.914  12.113  0.00  0.00     0.161 HD
BRANCH  14  16
ATOM     16  C5  <0> d          15.936  57.346  12.059  0.00  0.00     0.186 C 
BRANCH  16  17
ATOM     17  C3  <0> d          14.947  58.393  12.503  0.00  0.00     0.070 A 
ATOM     18  O1  <0> d          13.641  58.420  12.194  0.00  0.00    -0.325 OA
ATOM     19  C4  <0> d          13.069  59.495  12.760  0.00  0.00     0.142 A 
ATOM     20  C1  <0> d          14.013  60.169  13.441  0.00  0.00     0.027 A 
ATOM     21  C2  <0> d          15.223  59.459  13.276  0.00  0.00     0.036 A 
ENDBRANCH  16  17
ENDBRANCH  14  16
ENDBRANCH   1  14
TORSDOF 3
ENDMDL
MODEL 3
REMARK VINA RESULT:    -7.376      1.813      2.749
REMARK INTER + INTRA:          -8.906
REMARK INTER:                  -8.663
REMARK INTRA:                  -0.243
REMARK UNBOUND:                -0.236
REMARK  3 active torsions:
REMARK  status: ('A' for Active; 'I' for Inactive)
REMARK    1  A    between atoms: C6_1  and  N1_14 
REMARK    2  A    between atoms: N1_14  and  C5_16 
REMARK    3  A    between atoms: C5_16  and  C3_17 
ROOT
ATOM      1  C6  <0> d          15.850  55.790  11.940  0.00  0.00     0.133 A 
ATOM      2  C7  <0> d          16.312  54.693  12.687  0.00  0.00     0.122 A 
ATOM      3  C8  <0> d          17.129  53.749  12.042  0.00  0.00     0.138 A 
ATOM      4  N2  <0> d          17.432  52.802  12.987  0.00  0.00    -0.337 N 
ATOM      5  H1  <0> d          17.983  52.014  12.856  0.00  0.00     0.168 HD
ATOM      6  C9  <0> d          16.817  53.171  14.146  0.00  0.00     0.182 A 
ATOM      7  N3  <0> d          16.161  54.279  13.968  0.00  0.00    -0.346 N 
ATOM      8  H3  <0> d          15.617  54.763  14.683  1.00  0.00     0.167 HD
ATOM      9  N4  <0> d          17.433  53.926  10.760  0.00  0.00    -0.337 N 
ATOM     10  H4  <0> d          18.026  53.246  10.283  1.00  0.00     0.168 HD
ATOM     11  C10 <0> d          16.976  54.969  10.101  0.00  0.00     0.183 A 
ATOM     12  N5  <0> d          16.201  55.880  10.662  0.00  0.00    -0.337 N 
ATOM     13  H5  <0> d          15.867  56.665  10.105  1.00  0.00     0.168 HD
ENDROOT
BRANCH   1  14
ATOM     14  N1  <0> d          15.042  56.751  12.521  0.00  0.00    -0.368 N 
ATOM     15  H7  <0> d          14.150  56.517  12.822  0.00  0.00     0.161 HD
BRANCH  14  16
ATOM     16  C5  <0> d          15.532  58.122  12.681  0.00  0.00     0.186 C 
BRANCH  16  17
ATOM     17  C3  <0> d          14.367  59.078  12.666  0.00  0.00     0.070 A 
ATOM     18  O1  <0> d          13.358  59.072  11.780  0.00  0.00    -0.325 OA
ATOM     19  C4  <0> d          12.501  60.065  12.071  0.00  0.00     0.142 A 
ATOM     20  C1  <0> d          12.959  60.717  13.155  0.00  0.00     0.027 A 
ATOM     21  C2  <0> d          14.161  60.081  13.539  0.00  0.00     0.036 A 
ENDBRANCH  16  17
ENDBRANCH  14  16
ENDBRANCH   1  14
TORSDOF 3
ENDMDL
MODEL 4
REMARK VINA RESULT:    -7.358      1.666      2.305
REMARK INTER + INTRA:          -8.884
REMARK INTER:                  -8.529
REMARK INTRA:                  -0.355
REMARK UNBOUND:                -0.236
REMARK  3 active torsions:
REMARK  status: ('A' for Active; 'I' for Inactive)
REMARK    1  A    between atoms: C6_1  and  N1_14 
REMARK    2  A    between atoms: N1_14  and  C5_16 
REMARK    3  A    between atoms: C5_16  and  C3_17 
ROOT
ATOM      1  C6  <0> d          15.166  55.171  12.613  0.00  0.00     0.133 A 
ATOM      2  C7  <0> d          15.634  54.122  13.423  0.00  0.00     0.122 A 
ATOM      3  C8  <0> d          16.833  53.487  13.058  0.00  0.00     0.138 A 
ATOM      4  N2  <0> d          17.052  52.519  14.006  0.00  0.00    -0.337 N 
ATOM      5  H1  <0> d          17.802  51.905  14.037  0.00  0.00     0.168 HD
ATOM      6  C9  <0> d          16.022  52.580  14.896  0.00  0.00     0.182 A 
ATOM      7  N3  <0> d          15.192  53.520  14.553  0.00  0.00    -0.346 N 
ATOM      8  H3  <0> d          14.339  53.766  15.057  1.00  0.00     0.167 HD
ATOM      9  N4  <0> d          17.476  53.897  11.969  0.00  0.00    -0.337 N 
ATOM     10  H4  <0> d          18.348  53.442  11.696  1.00  0.00     0.168 HD
ATOM     11  C10 <0> d          16.999  54.884  11.240  0.00  0.00     0.183 A 
ATOM     12  N5  <0> d          15.875  55.508  11.540  0.00  0.00    -0.337 N 
ATOM     13  H5  <0> d          15.545  56.261  10.938  1.00  0.00     0.168 HD
ENDROOT
BRANCH   1  14
ATOM     14  N1  <0> d          13.992  55.834  12.922  0.00  0.00    -0.368 N 
ATOM     15  H7  <0> d          13.484  55.581  13.708  0.00  0.00     0.161 HD
BRANCH  14  16
ATOM     16  C5  <0> d          13.514  56.918  12.060  0.00  0.00     0.186 C 
BRANCH  16  17
ATOM     17  C3  <0> d          14.107  58.225  12.520  0.00  0.00     0.070 A 
ATOM     18  O1  <0> d          15.414  58.533  12.531  0.00  0.00    -0.325 OA
ATOM     19  C4  <0> d          15.576  59.780  13.004  0.00  0.00     0.142 A 
ATOM     20  C1  <0> d          14.364  60.282  13.302  0.00  0.00     0.027 A 
ATOM     21  C2  <0> d          13.417  59.280  12.990  0.00  0.00     0.036 A 
ENDBRANCH  16  17
ENDBRANCH  14  16
ENDBRANCH   1  14
TORSDOF 3
ENDMDL
MODEL 5
REMARK VINA RESULT:    -7.272      1.237      1.681
REMARK INTER + INTRA:          -8.783
REMARK INTER:                  -8.522
REMARK INTRA:                  -0.261
REMARK UNBOUND:                -0.236
REMARK  3 active torsions:
REMARK  status: ('A' for Active; 'I' for Inactive)
REMARK    1  A    between atoms: C6_1  and  N1_14 
REMARK    2  A    between atoms: N1_14  and  C5_16 
REMARK    3  A    between atoms: C5_16  and  C3_17 
ROOT
ATOM      1  C6  <0> d          15.899  55.962  12.793  0.00  0.00     0.133 A 
ATOM      2  C7  <0> d          16.968  55.509  13.586  0.00  0.00     0.122 A 
ATOM      3  C8  <0> d          16.856  54.247  14.192  0.00  0.00     0.138 A 
ATOM      4  N2  <0> d          18.019  54.059  14.894  0.00  0.00    -0.337 N 
ATOM      5  H1  <0> d          18.251  53.279  15.423  0.00  0.00     0.168 HD
ATOM      6  C9  <0> d          18.790  55.168  14.711  0.00  0.00     0.182 A 
ATOM      7  N3  <0> d          18.172  56.017  13.944  0.00  0.00    -0.346 N 
ATOM      8  H3  <0> d          18.537  56.925  13.656  1.00  0.00     0.167 HD
ATOM      9  N4  <0> d          15.752  53.531  13.995  0.00  0.00    -0.337 N 
ATOM     10  H4  <0> d          15.661  52.613  14.430  1.00  0.00     0.168 HD
ATOM     11  C10 <0> d          14.776  53.997  13.244  0.00  0.00     0.183 A 
ATOM     12  N5  <0> d          14.834  55.179  12.659  0.00  0.00    -0.337 N 
ATOM     13  H5  <0> d          14.047  55.497  12.093  1.00  0.00     0.168 HD
ENDROOT
BRANCH   1  14
ATOM     14  N1  <0> d          15.953  57.197  12.172  0.00  0.00    -0.368 N 
ATOM     15  H7  <0> d          16.013  57.253  11.206  0.00  0.00     0.161 HD
BRANCH  14  16
ATOM     16  C5  <0> d          15.921  58.422  12.975  0.00  0.00     0.186 C 
BRANCH  16  17
ATOM     17  C3  <0> d          14.611  59.135  12.752  0.00  0.00     0.070 A 
ATOM     18  O1  <0> d          13.592  58.688  12.000  0.00  0.00    -0.325 OA
ATOM     19  C4  <0> d          12.589  59.581  12.030  0.00  0.00     0.142 A 
ATOM     20  C1  <0> d          12.962  60.613  12.808  0.00  0.00     0.027 A 
ATOM     21  C2  <0> d          14.265  60.325  13.274  0.00  0.00     0.036 A 
ENDBRANCH  16  17
ENDBRANCH  14  16
ENDBRANCH   1  14
TORSDOF 3
ENDMDL
MODEL 6
REMARK VINA RESULT:    -7.233      1.804      2.008
REMARK INTER + INTRA:          -8.737
REMARK INTER:                  -8.604
REMARK INTRA:                  -0.133
REMARK UNBOUND:                -0.236
REMARK  3 active torsions:
REMARK  status: ('A' for Active; 'I' for Inactive)
REMARK    1  A    between atoms: C6_1  and  N1_14 
REMARK    2  A    between atoms: N1_14  and  C5_16 
REMARK    3  A    between atoms: C5_16  and  C3_17 
ROOT
ATOM      1  C6  <0> d          15.306  54.857  13.132  0.00  0.00     0.133 A 
ATOM      2  C7  <0> d          16.447  54.180  12.665  0.00  0.00     0.122 A 
ATOM      3  C8  <0> d          16.960  53.129  13.444  0.00  0.00     0.138 A 
ATOM      4  N2  <0> d          18.053  52.654  12.766  0.00  0.00    -0.337 N 
ATOM      5  H1  <0> d          18.628  51.924  13.043  0.00  0.00     0.168 HD
ATOM      6  C9  <0> d          18.183  53.396  11.630  0.00  0.00     0.182 A 
ATOM      7  N3  <0> d          17.240  54.290  11.573  0.00  0.00    -0.346 N 
ATOM      8  H3  <0> d          17.117  54.969  10.821  1.00  0.00     0.167 HD
ATOM      9  N4  <0> d          16.353  52.815  14.585  0.00  0.00    -0.337 N 
ATOM     10  H4  <0> d          16.717  52.053  15.158  1.00  0.00     0.168 HD
ATOM     11  C10 <0> d          15.287  53.477  14.982  0.00  0.00     0.183 A 
ATOM     12  N5  <0> d          14.772  54.475  14.287  0.00  0.00    -0.337 N 
ATOM     13  H5  <0> d          13.949  54.960  14.643  1.00  0.00     0.168 HD
ENDROOT
BRANCH   1  14
ATOM     14  N1  <0> d          14.757  55.900  12.408  0.00  0.00    -0.368 N 
ATOM     15  H7  <0> d          13.848  55.835  12.077  0.00  0.00     0.161 HD
BRANCH  14  16
ATOM     16  C5  <0> d          15.550  57.102  12.139  0.00  0.00     0.186 C 
BRANCH  16  17
ATOM     17  C3  <0> d          14.749  58.325  12.506  0.00  0.00     0.070 A 
ATOM     18  O1  <0> d          13.478  58.567  12.147  0.00  0.00    -0.325 OA
ATOM     19  C4  <0> d          13.088  59.750  12.651  0.00  0.00     0.142 A 
ATOM     20  C1  <0> d          14.116  60.277  13.341  0.00  0.00     0.027 A 
ATOM     21  C2  <0> d          15.186  59.358  13.249  0.00  0.00     0.036 A 
ENDBRANCH  16  17
ENDBRANCH  14  16
ENDBRANCH   1  14
TORSDOF 3
ENDMDL
MODEL 7
REMARK VINA RESULT:    -6.961      2.846      6.054
REMARK INTER + INTRA:          -8.418
REMARK INTER:                  -8.118
REMARK INTRA:                  -0.299
REMARK UNBOUND:                -0.236
REMARK  3 active torsions:
REMARK  status: ('A' for Active; 'I' for Inactive)
REMARK    1  A    between atoms: C6_1  and  N1_14 
REMARK    2  A    between atoms: N1_14  and  C5_16 
REMARK    3  A    between atoms: C5_16  and  C3_17 
ROOT
ATOM      1  C6  <0> d          14.472  57.685  12.356  0.00  0.00     0.133 A 
ATOM      2  C7  <0> d          13.360  58.477  12.022  0.00  0.00     0.122 A 
ATOM      3  C8  <0> d          13.358  59.822  12.429  0.00  0.00     0.138 A 
ATOM      4  N2  <0> d          12.175  60.352  11.979  0.00  0.00    -0.337 N 
ATOM      5  H1  <0> d          11.873  61.265  12.099  0.00  0.00     0.168 HD
ATOM      6  C9  <0> d          11.503  59.358  11.332  0.00  0.00     0.182 A 
ATOM      7  N3  <0> d          12.199  58.260  11.358  0.00  0.00    -0.346 N 
ATOM      8  H3  <0> d          11.916  57.372  10.943  1.00  0.00     0.167 HD
ATOM      9  N4  <0> d          14.399  60.294  13.109  0.00  0.00    -0.337 N 
ATOM     10  H4  <0> d          14.408  61.269  13.408  1.00  0.00     0.168 HD
ATOM     11  C10 <0> d          15.419  59.514  13.398  0.00  0.00     0.183 A 
ATOM     12  N5  <0> d          15.464  58.243  13.042  0.00  0.00    -0.337 N 
ATOM     13  H5  <0> d          16.274  57.680  13.299  1.00  0.00     0.168 HD
ENDROOT
BRANCH   1  14
ATOM     14  N1  <0> d          14.530  56.354  11.983  0.00  0.00    -0.368 N 
ATOM     15  H7  <0> d          14.413  56.105  11.053  0.00  0.00     0.161 HD
BRANCH  14  16
ATOM     16  C5  <0> d          14.767  55.320  12.993  0.00  0.00     0.186 C 
BRANCH  16  17
ATOM     17  C3  <0> d          15.951  54.481  12.585  0.00  0.00     0.070 A 
ATOM     18  O1  <0> d          16.255  53.265  13.067  0.00  0.00    -0.325 OA
ATOM     19  C4  <0> d          17.376  52.817  12.479  0.00  0.00     0.142 A 
ATOM     20  C1  <0> d          17.801  53.751  11.609  0.00  0.00     0.027 A 
ATOM     21  C2  <0> d          16.883  54.823  11.677  0.00  0.00     0.036 A 
ENDBRANCH  16  17
ENDBRANCH  14  16
ENDBRANCH   1  14
TORSDOF 3
ENDMDL
MODEL 8
REMARK VINA RESULT:    -6.840      2.230      3.643
REMARK INTER + INTRA:          -8.275
REMARK INTER:                  -8.039
REMARK INTRA:                  -0.236
REMARK UNBOUND:                -0.236
REMARK  3 active torsions:
REMARK  status: ('A' for Active; 'I' for Inactive)
REMARK    1  A    between atoms: C6_1  and  N1_14 
REMARK    2  A    between atoms: N1_14  and  C5_16 
REMARK    3  A    between atoms: C5_16  and  C3_17 
ROOT
ATOM      1  C6  <0> d          16.160  58.137  13.079  0.00  0.00     0.133 A 
ATOM      2  C7  <0> d          16.383  56.833  12.603  0.00  0.00     0.122 A 
ATOM      3  C8  <0> d          17.503  56.134  13.083  0.00  0.00     0.138 A 
ATOM      4  N2  <0> d          17.479  54.910  12.465  0.00  0.00    -0.337 N 
ATOM      5  H1  <0> d          18.120  54.192  12.586  0.00  0.00     0.168 HD
ATOM      6  C9  <0> d          16.387  54.886  11.650  0.00  0.00     0.182 A 
ATOM      7  N3  <0> d          15.746  56.014  11.732  0.00  0.00    -0.346 N 
ATOM      8  H3  <0> d          14.894  56.247  11.220  1.00  0.00     0.167 HD
ATOM      9  N4  <0> d          18.305  56.726  13.964  0.00  0.00    -0.337 N 
ATOM     10  H4  <0> d          19.121  56.226  14.319  1.00  0.00     0.168 HD
ATOM     11  C10 <0> d          18.056  57.949  14.381  0.00  0.00     0.183 A 
ATOM     12  N5  <0> d          17.020  58.647  13.954  0.00  0.00    -0.337 N 
ATOM     13  H5  <0> d          16.877  59.594  14.303  1.00  0.00     0.168 HD
ENDROOT
BRANCH   1  14
ATOM     14  N1  <0> d          15.074  58.873  12.641  0.00  0.00    -0.368 N 
ATOM     15  H7  <0> d          14.730  58.744  11.744  0.00  0.00     0.161 HD
BRANCH  14  16
ATOM     16  C5  <0> d          14.445  59.851  13.533  0.00  0.00     0.186 C 
BRANCH  16  17
ATOM     17  C3  <0> d          13.167  60.352  12.908  0.00  0.00     0.070 A 
ATOM     18  O1  <0> d          12.559  61.515  13.191  0.00  0.00    -0.325 OA
ATOM     19  C4  <0> d          11.447  61.630  12.447  0.00  0.00     0.142 A 
ATOM     20  C1  <0> d          11.334  60.533  11.677  0.00  0.00     0.027 A 
ATOM     21  C2  <0> d          12.444  59.709  11.974  0.00  0.00     0.036 A 
ENDBRANCH  16  17
ENDBRANCH  14  16
ENDBRANCH   1  14
TORSDOF 3
ENDMDL
MODEL 9
REMARK VINA RESULT:    -6.801      1.758      2.120
REMARK INTER + INTRA:          -8.229
REMARK INTER:                  -7.981
REMARK INTRA:                  -0.248
REMARK UNBOUND:                -0.236
REMARK  3 active torsions:
REMARK  status: ('A' for Active; 'I' for Inactive)
REMARK    1  A    between atoms: C6_1  and  N1_14 
REMARK    2  A    between atoms: N1_14  and  C5_16 
REMARK    3  A    between atoms: C5_16  and  C3_17 
ROOT
ATOM      1  C6  <0> d          16.129  56.592  12.336  0.00  0.00     0.133 A 
ATOM      2  C7  <0> d          17.187  56.715  13.254  0.00  0.00     0.122 A 
ATOM      3  C8  <0> d          17.977  55.582  13.511  0.00  0.00     0.138 A 
ATOM      4  N2  <0> d          18.918  55.977  14.427  0.00  0.00    -0.337 N 
ATOM      5  H1  <0> d          19.616  55.423  14.809  0.00  0.00     0.168 HD
ATOM      6  C9  <0> d          18.693  57.293  14.701  0.00  0.00     0.182 A 
ATOM      7  N3  <0> d          17.678  57.724  14.012  0.00  0.00    -0.346 N 
ATOM      8  H3  <0> d          17.308  58.675  14.039  1.00  0.00     0.167 HD
ATOM      9  N4  <0> d          17.698  54.443  12.883  0.00  0.00    -0.337 N 
ATOM     10  H4  <0> d          18.266  53.615  13.063  1.00  0.00     0.168 HD
ATOM     11  C10 <0> d          16.696  54.375  12.032  0.00  0.00     0.183 A 
ATOM     12  N5  <0> d          15.923  55.411  11.761  0.00  0.00    -0.337 N 
ATOM     13  H5  <0> d          15.155  55.304  11.100  1.00  0.00     0.168 HD
ENDROOT
BRANCH   1  14
ATOM     14  N1  <0> d          15.317  57.673  12.043  0.00  0.00    -0.368 N 
ATOM     15  H7  <0> d          15.697  58.471  11.644  0.00  0.00     0.161 HD
BRANCH  14  16
ATOM     16  C5  <0> d          13.883  57.613  12.337  0.00  0.00     0.186 C 
BRANCH  16  17
ATOM     17  C3  <0> d          13.338  59.012  12.470  0.00  0.00     0.070 A 
ATOM     18  O1  <0> d          12.338  59.537  11.744  0.00  0.00    -0.325 OA
ATOM     19  C4  <0> d          12.121  60.805  12.132  0.00  0.00     0.142 A 
ATOM     20  C1  <0> d          12.987  61.101  13.117  0.00  0.00     0.027 A 
ATOM     21  C2  <0> d          13.772  59.946  13.335  0.00  0.00     0.036 A 
ENDBRANCH  16  17
ENDBRANCH  14  16
ENDBRANCH   1  14
TORSDOF 3
ENDMDL
