MODEL 1
REMARK VINA RESULT:    -8.344      0.000      0.000
REMARK INTER + INTRA:          -8.344
REMARK INTER:                  -8.344
REMARK INTRA:                   0.000
REMARK UNBOUND:                 0.000
REMARK  0 active torsions:
REMARK  status: ('A' for Active; 'I' for Inactive)
ROOT
ATOM      1  C1  <0> d          11.069  61.058  11.869  0.00  0.00     0.052 C 
ATOM      2  C2  <0> d          12.136  60.007  12.030  0.00  0.00    -0.007 A 
ATOM      3  C3  <0> d          11.894  58.752  11.628  0.00  0.00     0.066 A 
ATOM      4  C4  <0> d          12.918  57.700  11.771  0.00  0.00     0.183 A 
ATOM      5  O1  <0> d          12.682  56.566  11.401  0.00  0.00    -0.288 OA
ATOM      6  C5  <0> d          14.231  58.029  12.365  0.00  0.00     0.028 A 
ATOM      7  C6  <0> d          15.212  57.056  12.511  0.00  0.00     0.016 A 
ATOM      8  C7  <0> d          16.436  57.390  13.071  0.00  0.00     0.001 A 
ATOM      9  C8  <0> d          16.686  58.685  13.486  0.00  0.00     0.001 A 
ATOM     10  C9  <0> d          15.717  59.665  13.347  0.00  0.00     0.016 A 
ATOM     11  C10 <0> d          14.486  59.346  12.788  0.00  0.00     0.029 A 
ATOM     12  C11 <0> d          13.436  60.375  12.622  0.00  0.00     0.189 A 
ATOM     13  O2  <0> d          13.643  61.518  12.977  0.00  0.00    -0.287 OA
ENDROOT
TORSDOF 0
ENDMDL
MODEL 2
REMARK VINA RESULT:    -8.254      1.354      3.819
REMARK INTER + INTRA:          -8.254
REMARK INTER:                  -8.254
REMARK INTRA:                   0.000
REMARK UNBOUND:                 0.000
REMARK  0 active torsions:
REMARK  status: ('A' for Active; 'I' for Inactive)
ROOT
ATOM      1  C1  <0> d          17.165  56.382  13.100  0.00  0.00     0.052 C 
ATOM      2  C2  <0> d          15.878  57.110  12.808  0.00  0.00    -0.007 A 
ATOM      3  C3  <0> d          14.842  56.438  12.289  0.00  0.00     0.066 A 
ATOM      4  C4  <0> d          13.568  57.121  11.992  0.00  0.00     0.183 A 
ATOM      5  O1  <0> d          12.638  56.496  11.522  0.00  0.00    -0.288 OA
ATOM      6  C5  <0> d          13.428  58.566  12.270  0.00  0.00     0.028 A 
ATOM      7  C6  <0> d          12.239  59.232  12.000  0.00  0.00     0.016 A 
ATOM      8  C7  <0> d          12.133  60.588  12.269  0.00  0.00     0.001 A 
ATOM      9  C8  <0> d          13.202  61.282  12.804  0.00  0.00     0.001 A 
ATOM     10  C9  <0> d          14.394  60.631  13.079  0.00  0.00     0.016 A 
ATOM     11  C10 <0> d          14.516  59.272  12.814  0.00  0.00     0.029 A 
ATOM     12  C11 <0> d          15.775  58.551  13.104  0.00  0.00     0.189 A 
ATOM     13  O2  <0> d          16.721  59.146  13.579  0.00  0.00    -0.287 OA
ENDROOT
TORSDOF 0
ENDMDL
MODEL 3
REMARK VINA RESULT:    -7.970      2.633      5.618
REMARK INTER + INTRA:          -7.970
REMARK INTER:                  -7.970
REMARK INTRA:                   0.000
REMARK UNBOUND:                 0.000
REMARK  0 active torsions:
REMARK  status: ('A' for Active; 'I' for Inactive)
ROOT
ATOM      1  C1  <0> d          17.908  53.679  12.730  0.00  0.00     0.052 C 
ATOM      2  C2  <0> d          17.514  55.110  12.993  0.00  0.00    -0.007 A 
ATOM      3  C3  <0> d          18.293  55.877  13.767  0.00  0.00     0.066 A 
ATOM      4  C4  <0> d          17.936  57.282  14.043  0.00  0.00     0.183 A 
ATOM      5  O1  <0> d          18.653  57.966  14.747  0.00  0.00    -0.288 OA
ATOM      6  C5  <0> d          16.704  57.855  13.460  0.00  0.00     0.028 A 
ATOM      7  C6  <0> d          16.346  59.175  13.705  0.00  0.00     0.016 A 
ATOM      8  C7  <0> d          15.185  59.689  13.146  0.00  0.00     0.001 A 
ATOM      9  C8  <0> d          14.382  58.896  12.348  0.00  0.00     0.001 A 
ATOM     10  C9  <0> d          14.726  57.578  12.096  0.00  0.00     0.016 A 
ATOM     11  C10 <0> d          15.886  57.048  12.648  0.00  0.00     0.029 A 
ATOM     12  C11 <0> d          16.281  55.647  12.389  0.00  0.00     0.189 A 
ATOM     13  O2  <0> d          15.588  54.940  11.686  0.00  0.00    -0.287 OA
ENDROOT
TORSDOF 0
ENDMDL
MODEL 4
REMARK VINA RESULT:    -7.910      1.876      4.324
REMARK INTER + INTRA:          -7.910
REMARK INTER:                  -7.910
REMARK INTRA:                   0.000
REMARK UNBOUND:                 0.000
REMARK  0 active torsions:
REMARK  status: ('A' for Active; 'I' for Inactive)
ROOT
ATOM      1  C1  <0> d          18.540  56.077  13.957  0.00  0.00     0.052 C 
ATOM      2  C2  <0> d          17.194  56.596  13.520  0.00  0.00    -0.007 A 
ATOM      3  C3  <0> d          16.272  55.737  13.064  0.00  0.00     0.066 A 
ATOM      4  C4  <0> d          14.944  56.212  12.629  0.00  0.00     0.183 A 
ATOM      5  O1  <0> d          14.119  55.420  12.218  0.00  0.00    -0.288 OA
ATOM      6  C5  <0> d          14.622  57.653  12.695  0.00  0.00     0.028 A 
ATOM      7  C6  <0> d          13.379  58.126  12.292  0.00  0.00     0.016 A 
ATOM      8  C7  <0> d          13.102  59.482  12.364  0.00  0.00     0.001 A 
ATOM      9  C8  <0> d          14.053  60.368  12.834  0.00  0.00     0.001 A 
ATOM     10  C9  <0> d          15.297  59.912  13.239  0.00  0.00     0.016 A 
ATOM     11  C10 <0> d          15.590  58.555  13.173  0.00  0.00     0.029 A 
ATOM     12  C11 <0> d          16.908  58.040  13.606  0.00  0.00     0.189 A 
ATOM     13  O2  <0> d          17.752  58.805  14.026  0.00  0.00    -0.287 OA
ENDROOT
TORSDOF 0
ENDMDL
MODEL 5
REMARK VINA RESULT:    -7.869      1.528      4.537
REMARK INTER + INTRA:          -7.869
REMARK INTER:                  -7.869
REMARK INTRA:                   0.000
REMARK UNBOUND:                 0.000
REMARK  0 active torsions:
REMARK  status: ('A' for Active; 'I' for Inactive)
ROOT
ATOM      1  C1  <0> d          15.463  54.757  12.513  0.00  0.00     0.052 C 
ATOM      2  C2  <0> d          15.279  56.244  12.673  0.00  0.00    -0.007 A 
ATOM      3  C3  <0> d          16.304  56.994  13.100  0.00  0.00     0.066 A 
ATOM      4  C4  <0> d          16.158  58.453  13.267  0.00  0.00     0.183 A 
ATOM      5  O1  <0> d          17.098  59.118  13.655  0.00  0.00    -0.288 OA
ATOM      6  C5  <0> d          14.866  59.101  12.959  0.00  0.00     0.028 A 
ATOM      7  C6  <0> d          14.703  60.473  13.107  0.00  0.00     0.016 A 
ATOM      8  C7  <0> d          13.480  61.057  12.812  0.00  0.00     0.001 A 
ATOM      9  C8  <0> d          12.423  60.283  12.372  0.00  0.00     0.001 A 
ATOM     10  C9  <0> d          12.570  58.914  12.219  0.00  0.00     0.016 A 
ATOM     11  C10 <0> d          13.789  58.314  12.511  0.00  0.00     0.029 A 
ATOM     12  C11 <0> d          13.976  56.855  12.351  0.00  0.00     0.189 A 
ATOM     13  O2  <0> d          13.058  56.164  11.960  0.00  0.00    -0.287 OA
ENDROOT
TORSDOF 0
ENDMDL
MODEL 6
REMARK VINA RESULT:    -7.803      2.056      3.931
REMARK INTER + INTRA:          -7.803
REMARK INTER:                  -7.803
REMARK INTRA:                   0.000
REMARK UNBOUND:                 0.000
REMARK  0 active torsions:
REMARK  status: ('A' for Active; 'I' for Inactive)
ROOT
ATOM      1  C1  <0> d          13.316  59.618  12.528  0.00  0.00     0.052 C 
ATOM      2  C2  <0> d          14.518  58.739  12.765  0.00  0.00    -0.007 A 
ATOM      3  C3  <0> d          15.587  59.240  13.397  0.00  0.00     0.066 A 
ATOM      4  C4  <0> d          16.780  58.407  13.645  0.00  0.00     0.183 A 
ATOM      5  O1  <0> d          17.742  58.876  14.221  0.00  0.00    -0.288 OA
ATOM      6  C5  <0> d          16.800  57.000  13.192  0.00  0.00     0.028 A 
ATOM      7  C6  <0> d          17.910  56.195  13.413  0.00  0.00     0.016 A 
ATOM      8  C7  <0> d          17.903  54.878  12.978  0.00  0.00     0.001 A 
ATOM      9  C8  <0> d          16.800  54.362  12.325  0.00  0.00     0.001 A 
ATOM     10  C9  <0> d          15.686  55.153  12.097  0.00  0.00     0.016 A 
ATOM     11  C10 <0> d          15.677  56.474  12.527  0.00  0.00     0.029 A 
ATOM     12  C11 <0> d          14.498  57.339  12.302  0.00  0.00     0.189 A 
ATOM     13  O2  <0> d          13.519  56.898  11.735  0.00  0.00    -0.287 OA
ENDROOT
TORSDOF 0
ENDMDL
MODEL 7
REMARK VINA RESULT:    -7.800      1.890      2.890
REMARK INTER + INTRA:          -7.800
REMARK INTER:                  -7.800
REMARK INTRA:                   0.000
REMARK UNBOUND:                 0.000
REMARK  0 active torsions:
REMARK  status: ('A' for Active; 'I' for Inactive)
ROOT
ATOM      1  C1  <0> d          14.429  60.556  13.163  0.00  0.00     0.052 C 
ATOM      2  C2  <0> d          14.700  59.085  12.979  0.00  0.00    -0.007 A 
ATOM      3  C3  <0> d          13.704  58.273  12.599  0.00  0.00     0.066 A 
ATOM      4  C4  <0> d          13.936  56.828  12.409  0.00  0.00     0.183 A 
ATOM      5  O1  <0> d          13.022  56.105  12.064  0.00  0.00    -0.288 OA
ATOM      6  C5  <0> d          15.283  56.264  12.639  0.00  0.00     0.028 A 
ATOM      7  C6  <0> d          15.527  54.907  12.467  0.00  0.00     0.016 A 
ATOM      8  C7  <0> d          16.800  54.403  12.688  0.00  0.00     0.001 A 
ATOM      9  C8  <0> d          17.827  55.241  13.081  0.00  0.00     0.001 A 
ATOM     10  C9  <0> d          17.598  56.596  13.257  0.00  0.00     0.016 A 
ATOM     11  C10 <0> d          16.328  57.117  13.038  0.00  0.00     0.029 A 
ATOM     12  C11 <0> d          16.058  58.560  13.213  0.00  0.00     0.189 A 
ATOM     13  O2  <0> d          16.952  59.310  13.552  0.00  0.00    -0.287 OA
ENDROOT
TORSDOF 0
ENDMDL
MODEL 8
REMARK VINA RESULT:    -7.791      1.496      2.303
REMARK INTER + INTRA:          -7.791
REMARK INTER:                  -7.791
REMARK INTRA:                   0.000
REMARK UNBOUND:                 0.000
REMARK  0 active torsions:
REMARK  status: ('A' for Active; 'I' for Inactive)
ROOT
ATOM      1  C1  <0> d          12.782  59.468  11.968  0.00  0.00     0.052 C 
ATOM      2  C2  <0> d          13.883  58.514  12.353  0.00  0.00    -0.007 A 
ATOM      3  C3  <0> d          13.737  57.204  12.112  0.00  0.00     0.066 A 
ATOM      4  C4  <0> d          14.796  56.244  12.476  0.00  0.00     0.183 A 
ATOM      5  O1  <0> d          14.647  55.059  12.250  0.00  0.00    -0.288 OA
ATOM      6  C5  <0> d          16.038  56.727  13.116  0.00  0.00     0.028 A 
ATOM      7  C6  <0> d          17.050  55.844  13.468  0.00  0.00     0.016 A 
ATOM      8  C7  <0> d          18.205  56.323  14.067  0.00  0.00     0.001 A 
ATOM      9  C8  <0> d          18.356  57.674  14.316  0.00  0.00     0.001 A 
ATOM     10  C9  <0> d          17.355  58.567  13.971  0.00  0.00     0.016 A 
ATOM     11  C10 <0> d          16.191  58.103  13.370  0.00  0.00     0.029 A 
ATOM     12  C11 <0> d          15.110  59.035  12.984  0.00  0.00     0.189 A 
ATOM     13  O2  <0> d          15.231  60.226  13.192  0.00  0.00    -0.287 OA
ENDROOT
TORSDOF 0
ENDMDL
MODEL 9
REMARK VINA RESULT:    -7.621      2.151      4.438
REMARK INTER + INTRA:          -7.621
REMARK INTER:                  -7.621
REMARK INTRA:                   0.000
REMARK UNBOUND:                 0.000
REMARK  0 active torsions:
REMARK  status: ('A' for Active; 'I' for Inactive)
ROOT
ATOM      1  C1  <0> d          17.488  54.210  13.144  0.00  0.00     0.052 C 
ATOM      2  C2  <0> d          16.474  55.316  12.998  0.00  0.00    -0.007 A 
ATOM      3  C3  <0> d          15.206  55.012  12.691  0.00  0.00     0.066 A 
ATOM      4  C4  <0> d          14.189  56.071  12.542  0.00  0.00     0.183 A 
ATOM      5  O1  <0> d          13.042  55.779  12.263  0.00  0.00    -0.288 OA
ATOM      6  C5  <0> d          14.569  57.487  12.732  0.00  0.00     0.028 A 
ATOM      7  C6  <0> d          13.630  58.502  12.597  0.00  0.00     0.016 A 
ATOM      8  C7  <0> d          14.012  59.822  12.781  0.00  0.00     0.001 A 
ATOM      9  C8  <0> d          15.321  60.135  13.097  0.00  0.00     0.001 A 
ATOM     10  C9  <0> d          16.268  59.133  13.235  0.00  0.00     0.016 A 
ATOM     11  C10 <0> d          15.901  57.805  13.054  0.00  0.00     0.029 A 
ATOM     12  C11 <0> d          16.891  56.716  13.201  0.00  0.00     0.189 A 
ATOM     13  O2  <0> d          18.043  56.975  13.484  0.00  0.00    -0.287 OA
ENDROOT
TORSDOF 0
ENDMDL
