MODEL 1
REMARK VINA RESULT:    -5.915      0.000      0.000
REMARK INTER + INTRA:          -7.351
REMARK INTER:                  -7.337
REMARK INTRA:                  -0.014
REMARK UNBOUND:                -0.053
REMARK  4 active torsions:
REMARK  status: ('A' for Active; 'I' for Inactive)
REMARK    1  A    between atoms: C2_1  and  O1_15 
REMARK    2  A    between atoms: C4_3  and  C10_7 
REMARK    3  A    between atoms: C6_5  and  O3_17 
REMARK    4  A    between atoms: C7_6  and  O2_19 
REMARK       I    between atoms: C10_7  and  N1_9 
ROOT
ATOM      1  C2  <0> d          14.955  47.448  19.309  0.00  0.00     0.105 A 
ATOM      2  C3  <0> d          16.295  47.119  19.386  0.00  0.00     0.057 A 
ATOM      3  C4  <0> d          17.249  47.925  18.761  0.00  0.00     0.037 A 
ATOM      4  C5  <0> d          16.846  49.063  18.058  0.00  0.00     0.057 A 
ATOM      5  C6  <0> d          15.504  49.389  17.983  0.00  0.00     0.105 A 
ATOM      6  C7  <0> d          14.555  48.581  18.604  0.00  0.00     0.135 A 
ENDROOT
BRANCH   3   7
ATOM      7  C10 <0> d          18.681  47.575  18.842  0.00  0.00     0.254 C 
ATOM      8  O4  <0> d          19.277  47.221  17.844  0.00  0.00    -0.267 OA
ATOM      9  N1  <0> d          19.326  47.648  20.023  0.00  0.00    -0.344 N 
ATOM     10  C14 <0> d          20.779  47.427  20.107  0.00  0.00     0.152 C 
ATOM     11  C11 <0> d          18.599  47.943  21.267  0.00  0.00     0.152 C 
ATOM     12  C13 <0> d          21.053  46.402  21.208  0.00  0.00     0.187 C 
ATOM     13  O5  <0> d          20.403  46.816  22.412  0.00  0.00    -0.388 OA
ATOM     14  C12 <0> d          18.979  46.888  22.313  0.00  0.00     0.187 C 
ENDBRANCH   3   7
BRANCH   5  15
ATOM     15  O3  <0> d          15.111  50.496  17.300  0.00  0.00    -0.353 OA
ATOM     16  C9  <0> d          15.916  50.893  16.188  0.00  0.00     0.210 C 
ENDBRANCH   5  15
BRANCH   1  17
ATOM     17  O1  <0> d          14.026  46.664  19.917  0.00  0.00    -0.353 OA
ATOM     18  C1  <0> d          14.440  45.354  20.311  0.00  0.00     0.210 C 
ENDBRANCH   1  17
BRANCH   6  19
ATOM     19  O2  <0> d          13.236  48.900  18.524  0.00  0.00    -0.351 OA
ATOM     20  C8  <0> d          12.733  49.819  19.497  0.00  0.00     0.210 C 
ENDBRANCH   6  19
TORSDOF 4
ENDMDL
MODEL 2
REMARK VINA RESULT:    -5.905      0.053      2.902
REMARK INTER + INTRA:          -7.338
REMARK INTER:                  -7.311
REMARK INTRA:                  -0.027
REMARK UNBOUND:                -0.053
REMARK  4 active torsions:
REMARK  status: ('A' for Active; 'I' for Inactive)
REMARK    1  A    between atoms: C2_1  and  O1_15 
REMARK    2  A    between atoms: C4_3  and  C10_7 
REMARK    3  A    between atoms: C6_5  and  O3_17 
REMARK    4  A    between atoms: C7_6  and  O2_19 
REMARK       I    between atoms: C10_7  and  N1_9 
ROOT
ATOM      1  C2  <0> d          15.543  49.374  17.984  0.00  0.00     0.105 A 
ATOM      2  C3  <0> d          16.880  49.040  18.075  0.00  0.00     0.057 A 
ATOM      3  C4  <0> d          17.267  47.902  18.788  0.00  0.00     0.037 A 
ATOM      4  C5  <0> d          16.300  47.106  19.407  0.00  0.00     0.057 A 
ATOM      5  C6  <0> d          14.963  47.445  19.312  0.00  0.00     0.105 A 
ATOM      6  C7  <0> d          14.580  48.582  18.605  0.00  0.00     0.135 A 
ENDROOT
BRANCH   3   7
ATOM      7  C10 <0> d          18.695  47.543  18.888  0.00  0.00     0.254 C 
ATOM      8  O4  <0> d          19.299  47.173  17.900  0.00  0.00    -0.267 OA
ATOM      9  N1  <0> d          19.329  47.624  20.074  0.00  0.00    -0.344 N 
ATOM     10  C14 <0> d          20.780  47.394  20.176  0.00  0.00     0.152 C 
ATOM     11  C11 <0> d          18.592  47.939  21.308  0.00  0.00     0.152 C 
ATOM     12  C13 <0> d          21.036  46.380  21.290  0.00  0.00     0.187 C 
ATOM     13  O5  <0> d          20.376  46.812  22.483  0.00  0.00    -0.388 OA
ATOM     14  C12 <0> d          18.954  46.893  22.369  0.00  0.00     0.187 C 
ENDBRANCH   3   7
BRANCH   5  15
ATOM     15  O3  <0> d          14.021  46.670  19.913  0.00  0.00    -0.353 OA
ATOM     16  C9  <0> d          14.414  45.349  20.293  0.00  0.00     0.210 C 
ENDBRANCH   5  15
BRANCH   1  17
ATOM     17  O1  <0> d          15.164  50.482  17.290  0.00  0.00    -0.353 OA
ATOM     18  C1  <0> d          15.988  50.869  16.188  0.00  0.00     0.210 C 
ENDBRANCH   1  17
BRANCH   6  19
ATOM     19  O2  <0> d          13.266  48.916  18.518  0.00  0.00    -0.351 OA
ATOM     20  C8  <0> d          12.758  49.809  19.511  0.00  0.00     0.210 C 
ENDBRANCH   6  19
TORSDOF 4
ENDMDL
MODEL 3
REMARK VINA RESULT:    -5.795      7.925     12.328
REMARK INTER + INTRA:          -7.204
REMARK INTER:                  -8.007
REMARK INTRA:                   0.804
REMARK UNBOUND:                -0.053
REMARK  4 active torsions:
REMARK  status: ('A' for Active; 'I' for Inactive)
REMARK    1  A    between atoms: C2_1  and  O1_15 
REMARK    2  A    between atoms: C4_3  and  C10_7 
REMARK    3  A    between atoms: C6_5  and  O3_17 
REMARK    4  A    between atoms: C7_6  and  O2_19 
REMARK       I    between atoms: C10_7  and  N1_9 
ROOT
ATOM      1  C2  <0> d          17.172  55.878  13.003  0.00  0.00     0.105 A 
ATOM      2  C3  <0> d          16.132  56.731  12.688  0.00  0.00     0.057 A 
ATOM      3  C4  <0> d          14.820  56.251  12.656  0.00  0.00     0.037 A 
ATOM      4  C5  <0> d          14.564  54.908  12.943  0.00  0.00     0.057 A 
ATOM      5  C6  <0> d          15.608  54.058  13.257  0.00  0.00     0.105 A 
ATOM      6  C7  <0> d          16.915  54.538  13.284  0.00  0.00     0.135 A 
ENDROOT
BRANCH   3   7
ATOM      7  C10 <0> d          13.708  57.161  12.320  0.00  0.00     0.254 C 
ATOM      8  O4  <0> d          12.793  56.770  11.622  0.00  0.00    -0.267 OA
ATOM      9  N1  <0> d          13.707  58.425  12.788  0.00  0.00    -0.344 N 
ATOM     10  C14 <0> d          12.551  59.311  12.573  0.00  0.00     0.152 C 
ATOM     11  C11 <0> d          14.863  58.963  13.521  0.00  0.00     0.152 C 
ATOM     12  C13 <0> d          13.052  60.635  11.995  0.00  0.00     0.187 C 
ATOM     13  O5  <0> d          14.099  61.146  12.823  0.00  0.00    -0.388 OA
ATOM     14  C12 <0> d          15.253  60.306  12.893  0.00  0.00     0.187 C 
ENDBRANCH   3   7
BRANCH   5  15
ATOM     15  O3  <0> d          15.359  52.751  13.537  0.00  0.00    -0.353 OA
ATOM     16  C9  <0> d          15.439  52.354  14.908  0.00  0.00     0.210 C 
ENDBRANCH   5  15
BRANCH   1  17
ATOM     17  O1  <0> d          18.449  56.344  13.033  0.00  0.00    -0.353 OA
ATOM     18  C1  <0> d          18.965  56.738  14.307  0.00  0.00     0.210 C 
ENDBRANCH   1  17
BRANCH   6  19
ATOM     19  O2  <0> d          17.940  53.699  13.588  0.00  0.00    -0.351 OA
ATOM     20  C8  <0> d          18.506  52.952  12.509  0.00  0.00     0.210 C 
ENDBRANCH   6  19
TORSDOF 4
ENDMDL
MODEL 4
REMARK VINA RESULT:    -5.758      7.907     12.063
REMARK INTER + INTRA:          -7.157
REMARK INTER:                  -7.997
REMARK INTRA:                   0.840
REMARK UNBOUND:                -0.053
REMARK  4 active torsions:
REMARK  status: ('A' for Active; 'I' for Inactive)
REMARK    1  A    between atoms: C2_1  and  O1_15 
REMARK    2  A    between atoms: C4_3  and  C10_7 
REMARK    3  A    between atoms: C6_5  and  O3_17 
REMARK    4  A    between atoms: C7_6  and  O2_19 
REMARK       I    between atoms: C10_7  and  N1_9 
ROOT
ATOM      1  C2  <0> d          15.607  54.035  13.260  0.00  0.00     0.105 A 
ATOM      2  C3  <0> d          14.563  54.885  12.953  0.00  0.00     0.057 A 
ATOM      3  C4  <0> d          14.818  56.231  12.673  0.00  0.00     0.037 A 
ATOM      4  C5  <0> d          16.129  56.712  12.704  0.00  0.00     0.057 A 
ATOM      5  C6  <0> d          17.171  55.856  13.013  0.00  0.00     0.105 A 
ATOM      6  C7  <0> d          16.913  54.517  13.295  0.00  0.00     0.135 A 
ENDROOT
BRANCH   3   7
ATOM      7  C10 <0> d          13.704  57.142  12.345  0.00  0.00     0.254 C 
ATOM      8  O4  <0> d          12.780  56.749  11.660  0.00  0.00    -0.267 OA
ATOM      9  N1  <0> d          13.712  58.409  12.804  0.00  0.00    -0.344 N 
ATOM     10  C14 <0> d          12.557  59.296  12.598  0.00  0.00     0.152 C 
ATOM     11  C11 <0> d          14.878  58.948  13.521  0.00  0.00     0.152 C 
ATOM     12  C13 <0> d          13.054  60.615  12.006  0.00  0.00     0.187 C 
ATOM     13  O5  <0> d          14.112  61.128  12.818  0.00  0.00    -0.388 OA
ATOM     14  C12 <0> d          15.265  60.286  12.880  0.00  0.00     0.187 C 
ENDBRANCH   3   7
BRANCH   5  15
ATOM     15  O3  <0> d          18.448  56.323  13.043  0.00  0.00    -0.353 OA
ATOM     16  C9  <0> d          18.966  56.712  14.317  0.00  0.00     0.210 C 
ENDBRANCH   5  15
BRANCH   1  17
ATOM     17  O1  <0> d          15.360  52.726  13.533  0.00  0.00    -0.353 OA
ATOM     18  C1  <0> d          15.447  52.321  14.901  0.00  0.00     0.210 C 
ENDBRANCH   1  17
BRANCH   6  19
ATOM     19  O2  <0> d          17.938  53.680  13.603  0.00  0.00    -0.351 OA
ATOM     20  C8  <0> d          18.513  52.937  12.526  0.00  0.00     0.210 C 
ENDBRANCH   6  19
TORSDOF 4
ENDMDL
MODEL 5
REMARK VINA RESULT:    -5.586      1.741      6.399
REMARK INTER + INTRA:          -6.945
REMARK INTER:                  -7.168
REMARK INTRA:                   0.223
REMARK UNBOUND:                -0.053
REMARK  4 active torsions:
REMARK  status: ('A' for Active; 'I' for Inactive)
REMARK    1  A    between atoms: C2_1  and  O1_15 
REMARK    2  A    between atoms: C4_3  and  C10_7 
REMARK    3  A    between atoms: C6_5  and  O3_17 
REMARK    4  A    between atoms: C7_6  and  O2_19 
REMARK       I    between atoms: C10_7  and  N1_9 
ROOT
ATOM      1  C2  <0> d          20.515  46.480  19.085  0.00  0.00     0.105 A 
ATOM      2  C3  <0> d          19.616  47.297  18.428  0.00  0.00     0.057 A 
ATOM      3  C4  <0> d          18.508  47.807  19.111  0.00  0.00     0.037 A 
ATOM      4  C5  <0> d          18.314  47.488  20.457  0.00  0.00     0.057 A 
ATOM      5  C6  <0> d          19.217  46.669  21.110  0.00  0.00     0.105 A 
ATOM      6  C7  <0> d          20.317  46.159  20.426  0.00  0.00     0.135 A 
ENDROOT
BRANCH   3   7
ATOM      7  C10 <0> d          17.546  48.680  18.412  0.00  0.00     0.254 C 
ATOM      8  O4  <0> d          17.926  49.715  17.900  0.00  0.00    -0.267 OA
ATOM      9  N1  <0> d          16.247  48.330  18.341  0.00  0.00    -0.344 N 
ATOM     10  C14 <0> d          15.293  49.118  17.543  0.00  0.00     0.152 C 
ATOM     11  C11 <0> d          15.738  47.155  19.064  0.00  0.00     0.152 C 
ATOM     12  C13 <0> d          14.078  49.441  18.414  0.00  0.00     0.187 C 
ATOM     13  O5  <0> d          13.578  48.234  18.994  0.00  0.00    -0.388 OA
ATOM     14  C12 <0> d          14.500  47.576  19.865  0.00  0.00     0.187 C 
ENDBRANCH   3   7
BRANCH   5  15
ATOM     15  O3  <0> d          19.028  46.359  22.421  0.00  0.00    -0.353 OA
ATOM     16  C9  <0> d          19.707  47.169  23.383  0.00  0.00     0.210 C 
ENDBRANCH   5  15
BRANCH   1  17
ATOM     17  O1  <0> d          21.593  45.983  18.421  0.00  0.00    -0.353 OA
ATOM     18  C1  <0> d          22.783  46.774  18.434  0.00  0.00     0.210 C 
ENDBRANCH   1  17
BRANCH   6  19
ATOM     19  O2  <0> d          21.200  45.350  21.069  0.00  0.00    -0.351 OA
ATOM     20  C8  <0> d          20.939  43.946  21.028  0.00  0.00     0.210 C 
ENDBRANCH   6  19
TORSDOF 4
ENDMDL
MODEL 6
REMARK VINA RESULT:    -5.512      2.108      2.582
REMARK INTER + INTRA:          -6.854
REMARK INTER:                  -6.655
REMARK INTRA:                  -0.198
REMARK UNBOUND:                -0.053
REMARK  4 active torsions:
REMARK  status: ('A' for Active; 'I' for Inactive)
REMARK    1  A    between atoms: C2_1  and  O1_15 
REMARK    2  A    between atoms: C4_3  and  C10_7 
REMARK    3  A    between atoms: C6_5  and  O3_17 
REMARK    4  A    between atoms: C7_6  and  O2_19 
REMARK       I    between atoms: C10_7  and  N1_9 
ROOT
ATOM      1  C2  <0> d          16.937  47.131  20.024  0.00  0.00     0.105 A 
ATOM      2  C3  <0> d          18.300  46.939  19.904  0.00  0.00     0.057 A 
ATOM      3  C4  <0> d          18.970  47.387  18.763  0.00  0.00     0.037 A 
ATOM      4  C5  <0> d          18.259  48.029  17.745  0.00  0.00     0.057 A 
ATOM      5  C6  <0> d          16.895  48.218  17.870  0.00  0.00     0.105 A 
ATOM      6  C7  <0> d          16.229  47.766  19.007  0.00  0.00     0.135 A 
ENDROOT
BRANCH   3   7
ATOM      7  C10 <0> d          20.426  47.184  18.633  0.00  0.00     0.254 C 
ATOM      8  O4  <0> d          20.867  46.071  18.419  0.00  0.00    -0.267 OA
ATOM      9  N1  <0> d          21.266  48.231  18.751  0.00  0.00    -0.344 N 
ATOM     10  C14 <0> d          22.708  48.077  18.500  0.00  0.00     0.152 C 
ATOM     11  C11 <0> d          20.770  49.560  19.140  0.00  0.00     0.152 C 
ATOM     12  C13 <0> d          23.475  48.669  19.683  0.00  0.00     0.187 C 
ATOM     13  O5  <0> d          23.011  49.998  19.929  0.00  0.00    -0.388 OA
ATOM     14  C12 <0> d          21.632  50.079  20.297  0.00  0.00     0.187 C 
ENDBRANCH   3   7
BRANCH   5  15
ATOM     15  O3  <0> d          16.203  48.842  16.880  0.00  0.00    -0.353 OA
ATOM     16  C9  <0> d          16.507  50.219  16.645  0.00  0.00     0.210 C 
ENDBRANCH   5  15
BRANCH   1  17
ATOM     17  O1  <0> d          16.284  46.695  21.134  0.00  0.00    -0.353 OA
ATOM     18  C1  <0> d          15.797  45.351  21.115  0.00  0.00     0.210 C 
ENDBRANCH   1  17
BRANCH   6  19
ATOM     19  O2  <0> d          14.888  47.949  19.124  0.00  0.00    -0.351 OA
ATOM     20  C8  <0> d          14.452  49.129  19.803  0.00  0.00     0.210 C 
ENDBRANCH   6  19
TORSDOF 4
ENDMDL
MODEL 7
REMARK VINA RESULT:    -5.469      2.979      5.083
REMARK INTER + INTRA:          -6.800
REMARK INTER:                  -6.537
REMARK INTRA:                  -0.263
REMARK UNBOUND:                -0.053
REMARK  4 active torsions:
REMARK  status: ('A' for Active; 'I' for Inactive)
REMARK    1  A    between atoms: C2_1  and  O1_15 
REMARK    2  A    between atoms: C4_3  and  C10_7 
REMARK    3  A    between atoms: C6_5  and  O3_17 
REMARK    4  A    between atoms: C7_6  and  O2_19 
REMARK       I    between atoms: C10_7  and  N1_9 
ROOT
ATOM      1  C2  <0> d          18.139  47.682  19.133  0.00  0.00     0.105 A 
ATOM      2  C3  <0> d          19.381  47.940  18.586  0.00  0.00     0.057 A 
ATOM      3  C4  <0> d          20.505  48.013  19.412  0.00  0.00     0.037 A 
ATOM      4  C5  <0> d          20.371  47.826  20.790  0.00  0.00     0.057 A 
ATOM      5  C6  <0> d          19.125  47.569  21.332  0.00  0.00     0.105 A 
ATOM      6  C7  <0> d          18.005  47.501  20.507  0.00  0.00     0.135 A 
ENDROOT
BRANCH   3   7
ATOM      7  C10 <0> d          21.834  48.288  18.830  0.00  0.00     0.254 C 
ATOM      8  O4  <0> d          22.617  47.377  18.647  0.00  0.00    -0.267 OA
ATOM      9  N1  <0> d          22.178  49.550  18.501  0.00  0.00    -0.344 N 
ATOM     10  C14 <0> d          23.443  49.833  17.805  0.00  0.00     0.152 C 
ATOM     11  C11 <0> d          21.303  50.685  18.834  0.00  0.00     0.152 C 
ATOM     12  C13 <0> d          24.177  50.941  18.559  0.00  0.00     0.187 C 
ATOM     13  O5  <0> d          23.294  52.050  18.748  0.00  0.00    -0.388 OA
ATOM     14  C12 <0> d          22.144  51.753  19.542  0.00  0.00     0.187 C 
ENDBRANCH   3   7
BRANCH   5  15
ATOM     15  O3  <0> d          18.992  47.386  22.673  0.00  0.00    -0.353 OA
ATOM     16  C9  <0> d          19.980  46.579  23.318  0.00  0.00     0.210 C 
ENDBRANCH   5  15
BRANCH   1  17
ATOM     17  O1  <0> d          17.044  47.611  18.330  0.00  0.00    -0.353 OA
ATOM     18  C1  <0> d          16.925  48.601  17.305  0.00  0.00     0.210 C 
ENDBRANCH   1  17
BRANCH   6  19
ATOM     19  O2  <0> d          16.782  47.253  21.044  0.00  0.00    -0.351 OA
ATOM     20  C8  <0> d          15.989  48.388  21.399  0.00  0.00     0.210 C 
ENDBRANCH   6  19
TORSDOF 4
ENDMDL
MODEL 8
REMARK VINA RESULT:    -5.459      3.076      4.720
REMARK INTER + INTRA:          -6.789
REMARK INTER:                  -6.537
REMARK INTRA:                  -0.251
REMARK UNBOUND:                -0.053
REMARK  4 active torsions:
REMARK  status: ('A' for Active; 'I' for Inactive)
REMARK    1  A    between atoms: C2_1  and  O1_15 
REMARK    2  A    between atoms: C4_3  and  C10_7 
REMARK    3  A    between atoms: C6_5  and  O3_17 
REMARK    4  A    between atoms: C7_6  and  O2_19 
REMARK       I    between atoms: C10_7  and  N1_9 
ROOT
ATOM      1  C2  <0> d          19.262  47.686  21.343  0.00  0.00     0.105 A 
ATOM      2  C3  <0> d          20.493  47.971  20.785  0.00  0.00     0.057 A 
ATOM      3  C4  <0> d          20.606  48.164  19.405  0.00  0.00     0.037 A 
ATOM      4  C5  <0> d          19.473  48.069  18.594  0.00  0.00     0.057 A 
ATOM      5  C6  <0> d          18.243  47.783  19.158  0.00  0.00     0.105 A 
ATOM      6  C7  <0> d          18.134  47.587  20.532  0.00  0.00     0.135 A 
ENDROOT
BRANCH   3   7
ATOM      7  C10 <0> d          21.920  48.468  18.806  0.00  0.00     0.254 C 
ATOM      8  O4  <0> d          22.717  47.573  18.604  0.00  0.00    -0.267 OA
ATOM      9  N1  <0> d          22.236  49.738  18.484  0.00  0.00    -0.344 N 
ATOM     10  C14 <0> d          23.486  50.050  17.771  0.00  0.00     0.152 C 
ATOM     11  C11 <0> d          21.346  50.854  18.840  0.00  0.00     0.152 C 
ATOM     12  C13 <0> d          24.211  51.165  18.524  0.00  0.00     0.187 C 
ATOM     13  O5  <0> d          23.311  52.256  18.736  0.00  0.00    -0.388 OA
ATOM     14  C12 <0> d          22.178  51.931  19.545  0.00  0.00     0.187 C 
ENDBRANCH   3   7
BRANCH   5  15
ATOM     15  O3  <0> d          17.139  47.691  18.369  0.00  0.00    -0.353 OA
ATOM     16  C9  <0> d          17.024  48.633  17.300  0.00  0.00     0.210 C 
ENDBRANCH   5  15
BRANCH   1  17
ATOM     17  O1  <0> d          19.151  47.498  22.685  0.00  0.00    -0.353 OA
ATOM     18  C1  <0> d          20.148  46.687  23.311  0.00  0.00     0.210 C 
ENDBRANCH   1  17
BRANCH   6  19
ATOM     19  O2  <0> d          16.925  47.301  21.083  0.00  0.00    -0.351 OA
ATOM     20  C8  <0> d          16.080  48.410  21.401  0.00  0.00     0.210 C 
ENDBRANCH   6  19
TORSDOF 4
ENDMDL
MODEL 9
REMARK VINA RESULT:    -5.378      1.581      2.298
REMARK INTER + INTRA:          -6.689
REMARK INTER:                  -6.636
REMARK INTRA:                  -0.053
REMARK UNBOUND:                -0.053
REMARK  4 active torsions:
REMARK  status: ('A' for Active; 'I' for Inactive)
REMARK    1  A    between atoms: C2_1  and  O1_15 
REMARK    2  A    between atoms: C4_3  and  C10_7 
REMARK    3  A    between atoms: C6_5  and  O3_17 
REMARK    4  A    between atoms: C7_6  and  O2_19 
REMARK       I    between atoms: C10_7  and  N1_9 
ROOT
ATOM      1  C2  <0> d          15.741  47.265  19.715  0.00  0.00     0.105 A 
ATOM      2  C3  <0> d          16.850  47.178  20.535  0.00  0.00     0.057 A 
ATOM      3  C4  <0> d          18.071  47.712  20.116  0.00  0.00     0.037 A 
ATOM      4  C5  <0> d          18.169  48.332  18.868  0.00  0.00     0.057 A 
ATOM      5  C6  <0> d          17.056  48.417  18.051  0.00  0.00     0.105 A 
ATOM      6  C7  <0> d          15.841  47.880  18.469  0.00  0.00     0.135 A 
ENDROOT
BRANCH   3   7
ATOM      7  C10 <0> d          19.257  47.619  20.990  0.00  0.00     0.254 C 
ATOM      8  O4  <0> d          19.326  48.302  21.994  0.00  0.00    -0.267 OA
ATOM      9  N1  <0> d          20.263  46.779  20.675  0.00  0.00    -0.344 N 
ATOM     10  C14 <0> d          21.395  46.575  21.593  0.00  0.00     0.152 C 
ATOM     11  C11 <0> d          20.265  46.043  19.402  0.00  0.00     0.152 C 
ATOM     12  C13 <0> d          22.696  46.755  20.811  0.00  0.00     0.187 C 
ATOM     13  O5  <0> d          22.665  45.927  19.646  0.00  0.00    -0.388 OA
ATOM     14  C12 <0> d          21.623  46.252  18.723  0.00  0.00     0.187 C 
ENDBRANCH   3   7
BRANCH   5  15
ATOM     15  O3  <0> d          17.150  49.022  16.837  0.00  0.00    -0.353 OA
ATOM     16  C9  <0> d          16.948  50.436  16.799  0.00  0.00     0.210 C 
ENDBRANCH   5  15
BRANCH   1  17
ATOM     17  O1  <0> d          14.552  46.746  20.121  0.00  0.00    -0.353 OA
ATOM     18  C1  <0> d          14.491  45.330  20.303  0.00  0.00     0.210 C 
ENDBRANCH   1  17
BRANCH   6  19
ATOM     19  O2  <0> d          14.751  47.960  17.662  0.00  0.00    -0.351 OA
ATOM     20  C8  <0> d          13.825  49.016  17.927  0.00  0.00     0.210 C 
ENDBRANCH   6  19
TORSDOF 4
ENDMDL
