MODEL 1
REMARK VINA RESULT:    -7.043      0.000      0.000
REMARK INTER + INTRA:          -8.027
REMARK INTER:                  -8.354
REMARK INTRA:                   0.326
REMARK UNBOUND:                 0.250
REMARK  3 active torsions:
REMARK  status: ('A' for Active; 'I' for Inactive)
REMARK    1  A    between atoms: C5_1  and  O3_8 
REMARK    2  A    between atoms: O3_8  and  C2_9 
REMARK    3  A    between atoms: C2_9  and  C4_12 
ROOT
ATOM      1  C5  <0> d          15.936  57.208  12.413  0.00  0.00     0.070 A 
ATOM      2  C6  <0> d          16.441  58.272  13.147  0.00  0.00     0.038 A 
ATOM      3  C7  <0> d          15.615  59.323  13.494  0.00  0.00     0.026 A 
ATOM      4  C8  <0> d          14.285  59.317  13.110  0.00  0.00     0.034 A 
ATOM      5  C9  <0> d          13.780  58.257  12.378  0.00  0.00     0.026 A 
ATOM      6  C10 <0> d          14.605  57.206  12.024  0.00  0.00     0.038 A 
ATOM      7 Cl1  <0> d          13.250  60.638  13.548  0.00  0.00    -0.084 Cl
ENDROOT
BRANCH   1   8
ATOM      8  O3  <0> d          16.747  56.172  12.070  0.00  0.00    -0.330 OA
BRANCH   8   9
ATOM      9  C2  <0> d          16.797  55.063  12.970  0.00  0.00     0.148 C 
ATOM     10  C3  <0> d          17.764  55.377  14.114  0.00  0.00     0.058 C 
ATOM     11  C1  <0> d          15.401  54.804  13.539  0.00  0.00     0.058 C 
BRANCH   9  12
ATOM     12  C4  <0> d          17.275  53.838  12.231  0.00  0.00     0.209 C 
ATOM     13  O2  <0> d          17.448  52.793  12.834  0.00  0.00    -0.646 OA
ATOM     14  O1  <0> d          17.488  53.894  11.033  0.00  0.00    -0.646 OA
ENDBRANCH   9  12
ENDBRANCH   8   9
ENDBRANCH   1   8
TORSDOF 3
ENDMDL
MODEL 2
REMARK VINA RESULT:    -7.043      0.044      1.511
REMARK INTER + INTRA:          -8.027
REMARK INTER:                  -8.369
REMARK INTRA:                   0.342
REMARK UNBOUND:                 0.250
REMARK  3 active torsions:
REMARK  status: ('A' for Active; 'I' for Inactive)
REMARK    1  A    between atoms: C5_1  and  O3_8 
REMARK    2  A    between atoms: O3_8  and  C2_9 
REMARK    3  A    between atoms: C2_9  and  C4_12 
ROOT
ATOM      1  C5  <0> d          15.980  57.205  12.412  0.00  0.00     0.070 A 
ATOM      2  C6  <0> d          14.646  57.208  12.028  0.00  0.00     0.038 A 
ATOM      3  C7  <0> d          13.830  58.267  12.377  0.00  0.00     0.026 A 
ATOM      4  C8  <0> d          14.342  59.325  13.108  0.00  0.00     0.034 A 
ATOM      5  C9  <0> d          15.672  59.324  13.491  0.00  0.00     0.026 A 
ATOM      6  C10 <0> d          16.489  58.263  13.149  0.00  0.00     0.038 A 
ATOM      7 Cl1  <0> d          13.315  60.654  13.544  0.00  0.00    -0.084 Cl
ENDROOT
BRANCH   1   8
ATOM      8  O3  <0> d          16.784  56.164  12.069  0.00  0.00    -0.330 OA
BRANCH   8   9
ATOM      9  C2  <0> d          16.822  55.052  12.965  0.00  0.00     0.148 C 
ATOM     10  C3  <0> d          17.788  55.354  14.113  0.00  0.00     0.058 C 
ATOM     11  C1  <0> d          15.423  54.802  13.529  0.00  0.00     0.058 C 
BRANCH   9  12
ATOM     12  C4  <0> d          17.292  53.826  12.224  0.00  0.00     0.209 C 
ATOM     13  O2  <0> d          17.532  53.890  11.031  0.00  0.00    -0.646 OA
ATOM     14  O1  <0> d          17.431  52.770  12.818  0.00  0.00    -0.646 OA
ENDBRANCH   9  12
ENDBRANCH   8   9
ENDBRANCH   1   8
TORSDOF 3
ENDMDL
MODEL 3
REMARK VINA RESULT:    -6.785      1.404      2.241
REMARK INTER + INTRA:          -7.725
REMARK INTER:                  -8.538
REMARK INTRA:                   0.813
REMARK UNBOUND:                 0.250
REMARK  3 active torsions:
REMARK  status: ('A' for Active; 'I' for Inactive)
REMARK    1  A    between atoms: C5_1  and  O3_8 
REMARK    2  A    between atoms: O3_8  and  C2_9 
REMARK    3  A    between atoms: C2_9  and  C4_12 
ROOT
ATOM      1  C5  <0> d          15.372  56.666  12.620  0.00  0.00     0.070 A 
ATOM      2  C6  <0> d          14.081  57.000  12.233  0.00  0.00     0.038 A 
ATOM      3  C7  <0> d          13.642  58.304  12.351  0.00  0.00     0.026 A 
ATOM      4  C8  <0> d          14.487  59.278  12.853  0.00  0.00     0.034 A 
ATOM      5  C9  <0> d          15.774  58.947  13.239  0.00  0.00     0.026 A 
ATOM      6  C10 <0> d          16.215  57.642  13.129  0.00  0.00     0.038 A 
ATOM      7 Cl1  <0> d          13.932  60.916  12.999  0.00  0.00    -0.084 Cl
ENDROOT
BRANCH   1   8
ATOM      8  O3  <0> d          15.806  55.383  12.505  0.00  0.00    -0.330 OA
BRANCH   8   9
ATOM      9  C2  <0> d          17.043  55.176  11.820  0.00  0.00     0.148 C 
ATOM     10  C3  <0> d          18.129  56.049  12.452  0.00  0.00     0.058 C 
ATOM     11  C1  <0> d          17.445  53.704  11.927  0.00  0.00     0.058 C 
BRANCH   9  12
ATOM     12  C4  <0> d          16.881  55.549  10.368  0.00  0.00     0.209 C 
ATOM     13  O2  <0> d          16.204  54.853   9.632  0.00  0.00    -0.646 OA
ATOM     14  O1  <0> d          17.429  56.546   9.930  0.00  0.00    -0.646 OA
ENDBRANCH   9  12
ENDBRANCH   8   9
ENDBRANCH   1   8
TORSDOF 3
ENDMDL
MODEL 4
REMARK VINA RESULT:    -6.634      1.102      2.257
REMARK INTER + INTRA:          -7.546
REMARK INTER:                  -7.993
REMARK INTRA:                   0.447
REMARK UNBOUND:                 0.250
REMARK  3 active torsions:
REMARK  status: ('A' for Active; 'I' for Inactive)
REMARK    1  A    between atoms: C5_1  and  O3_8 
REMARK    2  A    between atoms: O3_8  and  C2_9 
REMARK    3  A    between atoms: C2_9  and  C4_12 
ROOT
ATOM      1  C5  <0> d          15.912  57.438  12.400  0.00  0.00     0.070 A 
ATOM      2  C6  <0> d          14.587  57.355  11.995  0.00  0.00     0.038 A 
ATOM      3  C7  <0> d          13.694  58.348  12.348  0.00  0.00     0.026 A 
ATOM      4  C8  <0> d          14.120  59.427  13.104  0.00  0.00     0.034 A 
ATOM      5  C9  <0> d          15.440  59.512  13.508  0.00  0.00     0.026 A 
ATOM      6  C10 <0> d          16.335  58.517  13.162  0.00  0.00     0.038 A 
ATOM      7 Cl1  <0> d          12.996  60.674  13.545  0.00  0.00    -0.084 Cl
ENDROOT
BRANCH   1   8
ATOM      8  O3  <0> d          16.792  56.462  12.053  0.00  0.00    -0.330 OA
BRANCH   8   9
ATOM      9  C2  <0> d          16.768  55.262  12.829  0.00  0.00     0.148 C 
ATOM     10  C3  <0> d          15.367  55.059  13.411  0.00  0.00     0.058 C 
ATOM     11  C1  <0> d          17.128  54.072  11.939  0.00  0.00     0.058 C 
BRANCH   9  12
ATOM     12  C4  <0> d          17.767  55.371  13.953  0.00  0.00     0.209 C 
ATOM     13  O2  <0> d          18.707  56.140  13.859  0.00  0.00    -0.646 OA
ATOM     14  O1  <0> d          17.634  54.689  14.955  0.00  0.00    -0.646 OA
ENDBRANCH   9  12
ENDBRANCH   8   9
ENDBRANCH   1   8
TORSDOF 3
ENDMDL
MODEL 5
REMARK VINA RESULT:    -6.598      1.227      1.745
REMARK INTER + INTRA:          -7.505
REMARK INTER:                  -7.978
REMARK INTRA:                   0.474
REMARK UNBOUND:                 0.250
REMARK  3 active torsions:
REMARK  status: ('A' for Active; 'I' for Inactive)
REMARK    1  A    between atoms: C5_1  and  O3_8 
REMARK    2  A    between atoms: O3_8  and  C2_9 
REMARK    3  A    between atoms: C2_9  and  C4_12 
ROOT
ATOM      1  C5  <0> d          15.886  56.556  12.346  0.00  0.00     0.070 A 
ATOM      2  C6  <0> d          16.607  57.624  12.860  0.00  0.00     0.038 A 
ATOM      3  C7  <0> d          15.951  58.778  13.242  0.00  0.00     0.026 A 
ATOM      4  C8  <0> d          14.577  58.871  13.112  0.00  0.00     0.034 A 
ATOM      5  C9  <0> d          13.856  57.807  12.599  0.00  0.00     0.026 A 
ATOM      6  C10 <0> d          14.508  56.652  12.211  0.00  0.00     0.038 A 
ATOM      7 Cl1  <0> d          13.756  60.322  13.593  0.00  0.00    -0.084 Cl
ENDROOT
BRANCH   1   8
ATOM      8  O3  <0> d          16.529  55.419  11.970  0.00  0.00    -0.330 OA
BRANCH   8   9
ATOM      9  C2  <0> d          17.019  54.575  13.014  0.00  0.00     0.148 C 
ATOM     10  C3  <0> d          17.818  53.421  12.404  0.00  0.00     0.058 C 
ATOM     11  C1  <0> d          17.925  55.387  13.942  0.00  0.00     0.058 C 
BRANCH   9  12
ATOM     12  C4  <0> d          15.858  54.022  13.801  0.00  0.00     0.209 C 
ATOM     13  O2  <0> d          15.770  54.247  14.995  0.00  0.00    -0.646 OA
ATOM     14  O1  <0> d          15.009  53.350  13.242  0.00  0.00    -0.646 OA
ENDBRANCH   9  12
ENDBRANCH   8   9
ENDBRANCH   1   8
TORSDOF 3
ENDMDL
MODEL 6
REMARK VINA RESULT:    -6.468      3.541      5.438
REMARK INTER + INTRA:          -7.352
REMARK INTER:                  -7.723
REMARK INTRA:                   0.371
REMARK UNBOUND:                 0.250
REMARK  3 active torsions:
REMARK  status: ('A' for Active; 'I' for Inactive)
REMARK    1  A    between atoms: C5_1  and  O3_8 
REMARK    2  A    between atoms: O3_8  and  C2_9 
REMARK    3  A    between atoms: C2_9  and  C4_12 
ROOT
ATOM      1  C5  <0> d          15.624  58.464  12.473  0.00  0.00     0.070 A 
ATOM      2  C6  <0> d          16.367  59.056  13.484  0.00  0.00     0.038 A 
ATOM      3  C7  <0> d          17.369  58.342  14.113  0.00  0.00     0.026 A 
ATOM      4  C8  <0> d          17.632  57.037  13.736  0.00  0.00     0.034 A 
ATOM      5  C9  <0> d          16.892  56.445  12.728  0.00  0.00     0.026 A 
ATOM      6  C10 <0> d          15.886  57.154  12.100  0.00  0.00     0.038 A 
ATOM      7 Cl1  <0> d          18.892  56.143  14.527  0.00  0.00    -0.084 Cl
ENDROOT
BRANCH   1   8
ATOM      8  O3  <0> d          14.639  59.165  11.853  0.00  0.00    -0.330 OA
BRANCH   8   9
ATOM      9  C2  <0> d          13.359  59.184  12.488  0.00  0.00     0.148 C 
ATOM     10  C3  <0> d          12.927  57.752  12.811  0.00  0.00     0.058 C 
ATOM     11  C1  <0> d          13.443  59.995  13.783  0.00  0.00     0.058 C 
BRANCH   9  12
ATOM     12  C4  <0> d          12.349  59.816  11.564  0.00  0.00     0.209 C 
ATOM     13  O2  <0> d          12.231  61.029  11.528  0.00  0.00    -0.646 OA
ATOM     14  O1  <0> d          11.650  59.115  10.853  0.00  0.00    -0.646 OA
ENDBRANCH   9  12
ENDBRANCH   8   9
ENDBRANCH   1   8
TORSDOF 3
ENDMDL
MODEL 7
REMARK VINA RESULT:    -5.980      3.312      5.042
REMARK INTER + INTRA:          -6.779
REMARK INTER:                  -7.058
REMARK INTRA:                   0.279
REMARK UNBOUND:                 0.250
REMARK  3 active torsions:
REMARK  status: ('A' for Active; 'I' for Inactive)
REMARK    1  A    between atoms: C5_1  and  O3_8 
REMARK    2  A    between atoms: O3_8  and  C2_9 
REMARK    3  A    between atoms: C2_9  and  C4_12 
ROOT
ATOM      1  C5  <0> d          15.478  54.151  13.071  0.00  0.00     0.070 A 
ATOM      2  C6  <0> d          16.274  53.041  12.829  0.00  0.00     0.038 A 
ATOM      3  C7  <0> d          16.497  52.120  13.835  0.00  0.00     0.026 A 
ATOM      4  C8  <0> d          15.926  52.304  15.082  0.00  0.00     0.034 A 
ATOM      5  C9  <0> d          15.132  53.411  15.325  0.00  0.00     0.026 A 
ATOM      6  C10 <0> d          14.912  54.337  14.323  0.00  0.00     0.038 A 
ATOM      7 Cl1  <0> d          16.207  51.145  16.343  0.00  0.00    -0.084 Cl
ENDROOT
BRANCH   1   8
ATOM      8  O3  <0> d          15.257  55.058  12.082  0.00  0.00    -0.330 OA
BRANCH   8   9
ATOM      9  C2  <0> d          16.312  55.980  11.801  0.00  0.00     0.148 C 
ATOM     10  C3  <0> d          15.808  57.410  12.007  0.00  0.00     0.058 C 
ATOM     11  C1  <0> d          17.488  55.714  12.742  0.00  0.00     0.058 C 
BRANCH   9  12
ATOM     12  C4  <0> d          16.762  55.808  10.372  0.00  0.00     0.209 C 
ATOM     13  O2  <0> d          16.376  54.852   9.723  0.00  0.00    -0.646 OA
ATOM     14  O1  <0> d          17.512  56.625   9.867  0.00  0.00    -0.646 OA
ENDBRANCH   9  12
ENDBRANCH   8   9
ENDBRANCH   1   8
TORSDOF 3
ENDMDL
MODEL 8
REMARK VINA RESULT:    -5.950      1.663      2.237
REMARK INTER + INTRA:          -6.743
REMARK INTER:                  -7.916
REMARK INTRA:                   1.173
REMARK UNBOUND:                 0.250
REMARK  3 active torsions:
REMARK  status: ('A' for Active; 'I' for Inactive)
REMARK    1  A    between atoms: C5_1  and  O3_8 
REMARK    2  A    between atoms: O3_8  and  C2_9 
REMARK    3  A    between atoms: C2_9  and  C4_12 
ROOT
ATOM      1  C5  <0> d          15.265  58.141  13.026  0.00  0.00     0.070 A 
ATOM      2  C6  <0> d          15.323  59.517  13.195  0.00  0.00     0.038 A 
ATOM      3  C7  <0> d          14.252  60.304  12.818  0.00  0.00     0.026 A 
ATOM      4  C8  <0> d          13.121  59.722  12.273  0.00  0.00     0.034 A 
ATOM      5  C9  <0> d          13.061  58.349  12.104  0.00  0.00     0.026 A 
ATOM      6  C10 <0> d          14.133  57.560  12.475  0.00  0.00     0.038 A 
ATOM      7 Cl1  <0> d          11.777  60.712  11.801  0.00  0.00    -0.084 Cl
ENDROOT
BRANCH   1   8
ATOM      8  O3  <0> d          16.317  57.365  13.397  0.00  0.00    -0.330 OA
BRANCH   8   9
ATOM      9  C2  <0> d          16.582  56.208  12.602  0.00  0.00     0.148 C 
ATOM     10  C3  <0> d          16.205  56.493  11.146  0.00  0.00     0.058 C 
ATOM     11  C1  <0> d          18.069  55.860  12.685  0.00  0.00     0.058 C 
BRANCH   9  12
ATOM     12  C4  <0> d          15.765  55.049  13.114  0.00  0.00     0.209 C 
ATOM     13  O2  <0> d          14.913  54.543  12.404  0.00  0.00    -0.646 OA
ATOM     14  O1  <0> d          15.955  54.618  14.238  0.00  0.00    -0.646 OA
ENDBRANCH   9  12
ENDBRANCH   8   9
ENDBRANCH   1   8
TORSDOF 3
ENDMDL
MODEL 9
REMARK VINA RESULT:    -5.813      3.258      5.239
REMARK INTER + INTRA:          -6.581
REMARK INTER:                  -6.832
REMARK INTRA:                   0.250
REMARK UNBOUND:                 0.250
REMARK  3 active torsions:
REMARK  status: ('A' for Active; 'I' for Inactive)
REMARK    1  A    between atoms: C5_1  and  O3_8 
REMARK    2  A    between atoms: O3_8  and  C2_9 
REMARK    3  A    between atoms: C2_9  and  C4_12 
ROOT
ATOM      1  C5  <0> d          15.662  54.322  12.989  0.00  0.00     0.070 A 
ATOM      2  C6  <0> d          14.908  54.404  14.150  0.00  0.00     0.038 A 
ATOM      3  C7  <0> d          15.046  53.441  15.132  0.00  0.00     0.026 A 
ATOM      4  C8  <0> d          15.938  52.397  14.957  0.00  0.00     0.034 A 
ATOM      5  C9  <0> d          16.690  52.314  13.799  0.00  0.00     0.026 A 
ATOM      6  C10 <0> d          16.550  53.271  12.813  0.00  0.00     0.038 A 
ATOM      7 Cl1  <0> d          16.111  51.190  16.192  0.00  0.00    -0.084 Cl
ENDROOT
BRANCH   1   8
ATOM      8  O3  <0> d          15.527  55.268  12.022  0.00  0.00    -0.330 OA
BRANCH   8   9
ATOM      9  C2  <0> d          16.458  56.353  12.041  0.00  0.00     0.148 C 
ATOM     10  C3  <0> d          17.569  56.053  13.049  0.00  0.00     0.058 C 
ATOM     11  C1  <0> d          17.066  56.527  10.648  0.00  0.00     0.058 C 
BRANCH   9  12
ATOM     12  C4  <0> d          15.745  57.619  12.441  0.00  0.00     0.209 C 
ATOM     13  O2  <0> d          16.305  58.433  13.156  0.00  0.00    -0.646 OA
ATOM     14  O1  <0> d          14.610  57.830  12.049  0.00  0.00    -0.646 OA
ENDBRANCH   9  12
ENDBRANCH   8   9
ENDBRANCH   1   8
TORSDOF 3
ENDMDL
