MODEL 1
REMARK VINA RESULT:    -7.097      0.000      0.000
REMARK INTER + INTRA:          -8.245
REMARK INTER:                  -8.141
REMARK INTRA:                  -0.105
REMARK UNBOUND:                -0.111
REMARK  3 active torsions:
REMARK  status: ('A' for Active; 'I' for Inactive)
REMARK    1  A    between atoms: C3_3  and  S1_7 
REMARK    2  A    between atoms: C6_6  and  C7_13 
REMARK    3  A    between atoms: S1_7  and  N1_10 
ROOT
ATOM      1  C1  <0> d          12.636  59.279  12.057  0.00  0.00     0.020 A 
ATOM      2  C2  <0> d          13.310  58.080  11.951  0.00  0.00     0.026 A 
ATOM      3  C3  <0> d          14.576  57.943  12.494  0.00  0.00     0.079 A 
ATOM      4  C4  <0> d          15.174  59.007  13.148  0.00  0.00     0.026 A 
ATOM      5  C5  <0> d          14.512  60.211  13.260  0.00  0.00     0.020 A 
ATOM      6  C6  <0> d          13.234  60.357  12.715  0.00  0.00     0.040 A 
ENDROOT
BRANCH   3   7
ATOM      7  S1  <0> d          15.428  56.408  12.356  0.00  0.00     0.256 S 
ATOM      8  O3  <0> d          15.697  56.216  10.973  0.00  0.00    -0.201 OA
ATOM      9  O4  <0> d          16.456  56.424  13.336  0.00  0.00    -0.201 OA
BRANCH   7  10
ATOM     10  N1  <0> d          14.367  55.217  12.800  0.00  0.00    -0.324 N 
ATOM     11  H5  <0> d          14.549  54.672  13.581  0.00  0.00     0.169 HD
ATOM     12  H6  <0> d          13.564  55.064  12.278  0.00  0.00     0.169 HD
ENDBRANCH   7  10
ENDBRANCH   3   7
BRANCH   6  13
ATOM     13  C7  <0> d          12.521  61.643  12.831  0.00  0.00     0.209 C 
ATOM     14  O2  <0> d          12.312  62.319  11.835  0.00  0.00    -0.644 OA
ATOM     15  O1  <0> d          12.139  62.033  13.926  0.00  0.00    -0.644 OA
ENDBRANCH   6  13
TORSDOF 3
ENDMDL
MODEL 2
REMARK VINA RESULT:    -7.089      2.802      5.285
REMARK INTER + INTRA:          -8.236
REMARK INTER:                  -8.121
REMARK INTRA:                  -0.115
REMARK UNBOUND:                -0.111
REMARK  3 active torsions:
REMARK  status: ('A' for Active; 'I' for Inactive)
REMARK    1  A    between atoms: C3_3  and  S1_7 
REMARK    2  A    between atoms: C6_6  and  C7_13 
REMARK    3  A    between atoms: S1_7  and  N1_10 
ROOT
ATOM      1  C1  <0> d          13.321  58.232  12.030  0.00  0.00     0.020 A 
ATOM      2  C2  <0> d          12.566  59.383  12.121  0.00  0.00     0.026 A 
ATOM      3  C3  <0> d          13.089  60.511  12.729  0.00  0.00     0.079 A 
ATOM      4  C4  <0> d          14.371  60.493  13.249  0.00  0.00     0.026 A 
ATOM      5  C5  <0> d          15.136  59.349  13.166  0.00  0.00     0.020 A 
ATOM      6  C6  <0> d          14.616  58.207  12.553  0.00  0.00     0.040 A 
ENDROOT
BRANCH   3   7
ATOM      7  S1  <0> d          12.117  61.977  12.839  0.00  0.00     0.256 S 
ATOM      8  O3  <0> d          11.851  62.185  14.220  0.00  0.00    -0.201 OA
ATOM      9  O4  <0> d          12.763  62.952  12.032  0.00  0.00    -0.201 OA
BRANCH   7  10
ATOM     10  N1  <0> d          10.661  61.654  12.120  0.00  0.00    -0.324 N 
ATOM     11  H5  <0> d          10.353  60.738  12.038  0.00  0.00     0.169 HD
ATOM     12  H6  <0> d          10.116  62.381  11.780  0.00  0.00     0.169 HD
ENDBRANCH   7  10
ENDBRANCH   3   7
BRANCH   6  13
ATOM     13  C7  <0> d          15.429  56.979  12.461  0.00  0.00     0.209 C 
ATOM     14  O2  <0> d          15.055  56.048  11.763  0.00  0.00    -0.644 OA
ATOM     15  O1  <0> d          16.478  56.893  13.084  0.00  0.00    -0.644 OA
ENDBRANCH   6  13
TORSDOF 3
ENDMDL
MODEL 3
REMARK VINA RESULT:    -7.082      0.048      1.336
REMARK INTER + INTRA:          -8.227
REMARK INTER:                  -8.122
REMARK INTRA:                  -0.105
REMARK UNBOUND:                -0.111
REMARK  3 active torsions:
REMARK  status: ('A' for Active; 'I' for Inactive)
REMARK    1  A    between atoms: C3_3  and  S1_7 
REMARK    2  A    between atoms: C6_6  and  C7_13 
REMARK    3  A    between atoms: S1_7  and  N1_10 
ROOT
ATOM      1  C1  <0> d          14.531  60.247  13.227  0.00  0.00     0.020 A 
ATOM      2  C2  <0> d          15.196  59.043  13.124  0.00  0.00     0.026 A 
ATOM      3  C3  <0> d          14.590  57.964  12.506  0.00  0.00     0.079 A 
ATOM      4  C4  <0> d          13.313  58.084  11.986  0.00  0.00     0.026 A 
ATOM      5  C5  <0> d          12.636  59.281  12.082  0.00  0.00     0.020 A 
ATOM      6  C6  <0> d          13.241  60.375  12.705  0.00  0.00     0.040 A 
ENDROOT
BRANCH   3   7
ATOM      7  S1  <0> d          15.449  56.431  12.378  0.00  0.00     0.256 S 
ATOM      8  O3  <0> d          15.690  56.215  10.994  0.00  0.00    -0.201 OA
ATOM      9  O4  <0> d          16.496  56.472  13.337  0.00  0.00    -0.201 OA
BRANCH   7  10
ATOM     10  N1  <0> d          14.404  55.243  12.866  0.00  0.00    -0.324 N 
ATOM     11  H5  <0> d          13.945  54.700  12.207  0.00  0.00     0.169 HD
ATOM     12  H6  <0> d          14.250  55.091  13.812  0.00  0.00     0.169 HD
ENDBRANCH   7  10
ENDBRANCH   3   7
BRANCH   6  13
ATOM     13  C7  <0> d          12.522  61.659  12.811  0.00  0.00     0.209 C 
ATOM     14  O2  <0> d          12.261  62.299  11.804  0.00  0.00    -0.644 OA
ATOM     15  O1  <0> d          12.188  62.083  13.909  0.00  0.00    -0.644 OA
ENDBRANCH   6  13
TORSDOF 3
ENDMDL
MODEL 4
REMARK VINA RESULT:    -7.081      2.777      5.476
REMARK INTER + INTRA:          -8.227
REMARK INTER:                  -8.112
REMARK INTRA:                  -0.115
REMARK UNBOUND:                -0.111
REMARK  3 active torsions:
REMARK  status: ('A' for Active; 'I' for Inactive)
REMARK    1  A    between atoms: C3_3  and  S1_7 
REMARK    2  A    between atoms: C6_6  and  C7_13 
REMARK    3  A    between atoms: S1_7  and  N1_10 
ROOT
ATOM      1  C1  <0> d          15.164  59.366  13.116  0.00  0.00     0.020 A 
ATOM      2  C2  <0> d          14.367  60.486  13.215  0.00  0.00     0.026 A 
ATOM      3  C3  <0> d          13.076  60.469  12.715  0.00  0.00     0.079 A 
ATOM      4  C4  <0> d          12.577  59.327  12.113  0.00  0.00     0.026 A 
ATOM      5  C5  <0> d          13.363  58.199  12.007  0.00  0.00     0.020 A 
ATOM      6  C6  <0> d          14.666  58.210  12.510  0.00  0.00     0.040 A 
ENDROOT
BRANCH   3   7
ATOM      7  S1  <0> d          12.065  61.906  12.846  0.00  0.00     0.256 S 
ATOM      8  O3  <0> d          11.809  62.096  14.231  0.00  0.00    -0.201 OA
ATOM      9  O4  <0> d          12.673  62.905  12.040  0.00  0.00    -0.201 OA
BRANCH   7  10
ATOM     10  N1  <0> d          10.610  61.546  12.142  0.00  0.00    -0.324 N 
ATOM     11  H5  <0> d          10.288  60.632  12.134  0.00  0.00     0.169 HD
ATOM     12  H6  <0> d          10.081  62.250  11.735  0.00  0.00     0.169 HD
ENDBRANCH   7  10
ENDBRANCH   3   7
BRANCH   6  13
ATOM     13  C7  <0> d          15.512  57.007  12.399  0.00  0.00     0.209 C 
ATOM     14  O2  <0> d          16.535  56.915  13.062  0.00  0.00    -0.644 OA
ATOM     15  O1  <0> d          15.191  56.101  11.643  0.00  0.00    -0.644 OA
ENDBRANCH   6  13
TORSDOF 3
ENDMDL
MODEL 5
REMARK VINA RESULT:    -6.952      1.424      2.106
REMARK INTER + INTRA:          -8.079
REMARK INTER:                  -7.964
REMARK INTRA:                  -0.115
REMARK UNBOUND:                -0.111
REMARK  3 active torsions:
REMARK  status: ('A' for Active; 'I' for Inactive)
REMARK    1  A    between atoms: C3_3  and  S1_7 
REMARK    2  A    between atoms: C6_6  and  C7_13 
REMARK    3  A    between atoms: S1_7  and  N1_10 
ROOT
ATOM      1  C1  <0> d          14.998  59.806  13.301  0.00  0.00     0.020 A 
ATOM      2  C2  <0> d          16.018  58.880  13.358  0.00  0.00     0.026 A 
ATOM      3  C3  <0> d          15.821  57.596  12.881  0.00  0.00     0.079 A 
ATOM      4  C4  <0> d          14.599  57.232  12.342  0.00  0.00     0.026 A 
ATOM      5  C5  <0> d          13.569  58.147  12.278  0.00  0.00     0.020 A 
ATOM      6  C6  <0> d          13.762  59.445  12.758  0.00  0.00     0.040 A 
ENDROOT
BRANCH   3   7
ATOM      7  S1  <0> d          17.131  56.421  12.957  0.00  0.00     0.256 S 
ATOM      8  O3  <0> d          17.509  56.146  11.615  0.00  0.00    -0.201 OA
ATOM      9  O4  <0> d          18.053  56.904  13.924  0.00  0.00    -0.201 OA
BRANCH   7  10
ATOM     10  N1  <0> d          16.495  55.018  13.566  0.00  0.00    -0.324 N 
ATOM     11  H5  <0> d          16.181  54.986  14.482  0.00  0.00     0.169 HD
ATOM     12  H6  <0> d          16.439  54.228  13.006  0.00  0.00     0.169 HD
ENDBRANCH   7  10
ENDBRANCH   3   7
BRANCH   6  13
ATOM     13  C7  <0> d          12.664  60.429  12.694  0.00  0.00     0.209 C 
ATOM     14  O2  <0> d          12.743  61.474  13.322  0.00  0.00    -0.644 OA
ATOM     15  O1  <0> d          11.675  60.197  12.013  0.00  0.00    -0.644 OA
ENDBRANCH   6  13
TORSDOF 3
ENDMDL
MODEL 6
REMARK VINA RESULT:    -6.420      2.967      3.725
REMARK INTER + INTRA:          -7.469
REMARK INTER:                  -7.356
REMARK INTRA:                  -0.113
REMARK UNBOUND:                -0.111
REMARK  3 active torsions:
REMARK  status: ('A' for Active; 'I' for Inactive)
REMARK    1  A    between atoms: C3_3  and  S1_7 
REMARK    2  A    between atoms: C6_6  and  C7_13 
REMARK    3  A    between atoms: S1_7  and  N1_10 
ROOT
ATOM      1  C1  <0> d          16.333  57.405  12.842  0.00  0.00     0.020 A 
ATOM      2  C2  <0> d          16.806  56.126  13.051  0.00  0.00     0.026 A 
ATOM      3  C3  <0> d          15.928  55.058  13.099  0.00  0.00     0.079 A 
ATOM      4  C4  <0> d          14.568  55.265  12.937  0.00  0.00     0.026 A 
ATOM      5  C5  <0> d          14.081  56.538  12.729  0.00  0.00     0.020 A 
ATOM      6  C6  <0> d          14.963  57.620  12.679  0.00  0.00     0.040 A 
ENDROOT
BRANCH   3   7
ATOM      7  S1  <0> d          16.542  53.428  13.365  0.00  0.00     0.256 S 
ATOM      8  O3  <0> d          15.409  52.598  13.580  0.00  0.00    -0.201 OA
ATOM      9  O4  <0> d          17.486  53.177  12.333  0.00  0.00    -0.201 OA
BRANCH   7  10
ATOM     10  N1  <0> d          17.389  53.451  14.788  0.00  0.00    -0.324 N 
ATOM     11  H5  <0> d          17.410  54.257  15.326  0.00  0.00     0.169 HD
ATOM     12  H6  <0> d          17.865  52.658  15.081  0.00  0.00     0.169 HD
ENDBRANCH   7  10
ENDBRANCH   3   7
BRANCH   6  13
ATOM     13  C7  <0> d          14.448  58.985  12.456  0.00  0.00     0.209 C 
ATOM     14  O2  <0> d          13.418  59.154  11.819  0.00  0.00    -0.644 OA
ATOM     15  O1  <0> d          15.052  59.947  12.907  0.00  0.00    -0.644 OA
ENDBRANCH   6  13
TORSDOF 3
ENDMDL
MODEL 7
REMARK VINA RESULT:    -6.091      2.442      3.066
REMARK INTER + INTRA:          -7.092
REMARK INTER:                  -6.984
REMARK INTRA:                  -0.107
REMARK UNBOUND:                -0.111
REMARK  3 active torsions:
REMARK  status: ('A' for Active; 'I' for Inactive)
REMARK    1  A    between atoms: C3_3  and  S1_7 
REMARK    2  A    between atoms: C6_6  and  C7_13 
REMARK    3  A    between atoms: S1_7  and  N1_10 
ROOT
ATOM      1  C1  <0> d          13.848  56.707  12.736  0.00  0.00     0.020 A 
ATOM      2  C2  <0> d          14.630  55.571  12.739  0.00  0.00     0.026 A 
ATOM      3  C3  <0> d          16.009  55.675  12.788  0.00  0.00     0.079 A 
ATOM      4  C4  <0> d          16.613  56.919  12.835  0.00  0.00     0.026 A 
ATOM      5  C5  <0> d          15.844  58.064  12.832  0.00  0.00     0.020 A 
ATOM      6  C6  <0> d          14.451  57.966  12.783  0.00  0.00     0.040 A 
ENDROOT
BRANCH   3   7
ATOM      7  S1  <0> d          16.999  54.218  12.793  0.00  0.00     0.256 S 
ATOM      8  O3  <0> d          18.181  54.532  13.517  0.00  0.00    -0.201 OA
ATOM      9  O4  <0> d          16.142  53.146  13.161  0.00  0.00    -0.201 OA
BRANCH   7  10
ATOM     10  N1  <0> d          17.464  53.938  11.228  0.00  0.00    -0.324 N 
ATOM     11  H5  <0> d          17.039  54.420  10.502  0.00  0.00     0.169 HD
ATOM     12  H6  <0> d          18.160  53.290  11.038  0.00  0.00     0.169 HD
ENDBRANCH   7  10
ENDBRANCH   3   7
BRANCH   6  13
ATOM     13  C7  <0> d          13.623  59.187  12.780  0.00  0.00     0.209 C 
ATOM     14  O2  <0> d          13.690  59.974  13.712  0.00  0.00    -0.644 OA
ATOM     15  O1  <0> d          12.867  59.409  11.844  0.00  0.00    -0.644 OA
ENDBRANCH   6  13
TORSDOF 3
ENDMDL
MODEL 8
REMARK VINA RESULT:    -6.059      4.869      7.116
REMARK INTER + INTRA:          -7.055
REMARK INTER:                  -6.940
REMARK INTRA:                  -0.115
REMARK UNBOUND:                -0.111
REMARK  3 active torsions:
REMARK  status: ('A' for Active; 'I' for Inactive)
REMARK    1  A    between atoms: C3_3  and  S1_7 
REMARK    2  A    between atoms: C6_6  and  C7_13 
REMARK    3  A    between atoms: S1_7  and  N1_10 
ROOT
ATOM      1  C1  <0> d          16.866  52.558  13.603  0.00  0.00     0.020 A 
ATOM      2  C2  <0> d          17.043  53.471  12.584  0.00  0.00     0.026 A 
ATOM      3  C3  <0> d          16.253  54.605  12.521  0.00  0.00     0.079 A 
ATOM      4  C4  <0> d          15.281  54.833  13.479  0.00  0.00     0.026 A 
ATOM      5  C5  <0> d          15.093  53.930  14.504  0.00  0.00     0.020 A 
ATOM      6  C6  <0> d          15.887  52.782  14.574  0.00  0.00     0.040 A 
ENDROOT
BRANCH   3   7
ATOM      7  S1  <0> d          16.487  55.766  11.216  0.00  0.00     0.256 S 
ATOM      8  O3  <0> d          15.264  56.476  11.080  0.00  0.00    -0.201 OA
ATOM      9  O4  <0> d          17.724  56.418  11.470  0.00  0.00    -0.201 OA
BRANCH   7  10
ATOM     10  N1  <0> d          16.687  54.898   9.819  0.00  0.00    -0.324 N 
ATOM     11  H5  <0> d          16.569  55.329   8.959  0.00  0.00     0.169 HD
ATOM     12  H6  <0> d          16.921  53.957   9.863  0.00  0.00     0.169 HD
ENDBRANCH   7  10
ENDBRANCH   3   7
BRANCH   6  13
ATOM     13  C7  <0> d          15.691  51.811  15.667  0.00  0.00     0.209 C 
ATOM     14  O2  <0> d          16.539  50.959  15.888  0.00  0.00    -0.644 OA
ATOM     15  O1  <0> d          14.678  51.858  16.351  0.00  0.00    -0.644 OA
ENDBRANCH   6  13
TORSDOF 3
ENDMDL
MODEL 9
REMARK VINA RESULT:    -5.849      2.754      5.385
REMARK INTER + INTRA:          -6.815
REMARK INTER:                  -6.704
REMARK INTRA:                  -0.111
REMARK UNBOUND:                -0.111
REMARK  3 active torsions:
REMARK  status: ('A' for Active; 'I' for Inactive)
REMARK    1  A    between atoms: C3_3  and  S1_7 
REMARK    2  A    between atoms: C6_6  and  C7_13 
REMARK    3  A    between atoms: S1_7  and  N1_10 
ROOT
ATOM      1  C1  <0> d          16.270  58.756  13.180  0.00  0.00     0.020 A 
ATOM      2  C2  <0> d          15.283  59.713  13.289  0.00  0.00     0.026 A 
ATOM      3  C3  <0> d          13.997  59.440  12.857  0.00  0.00     0.079 A 
ATOM      4  C4  <0> d          13.691  58.204  12.315  0.00  0.00     0.026 A 
ATOM      5  C5  <0> d          14.668  57.237  12.199  0.00  0.00     0.020 A 
ATOM      6  C6  <0> d          15.968  57.506  12.633  0.00  0.00     0.040 A 
ENDROOT
BRANCH   3   7
ATOM      7  S1  <0> d          12.743  60.669  13.002  0.00  0.00     0.256 S 
ATOM      8  O3  <0> d          11.654  60.234  12.200  0.00  0.00    -0.201 OA
ATOM      9  O4  <0> d          12.606  60.947  14.388  0.00  0.00    -0.201 OA
BRANCH   7  10
ATOM     10  N1  <0> d          13.328  62.049  12.296  0.00  0.00    -0.324 N 
ATOM     11  H5  <0> d          13.529  62.824  12.841  0.00  0.00     0.169 HD
ATOM     12  H6  <0> d          13.466  62.081  11.337  0.00  0.00     0.169 HD
ENDBRANCH   7  10
ENDBRANCH   3   7
BRANCH   6  13
ATOM     13  C7  <0> d          17.018  56.477  12.512  0.00  0.00     0.209 C 
ATOM     14  O2  <0> d          17.063  55.763  11.521  0.00  0.00    -0.644 OA
ATOM     15  O1  <0> d          17.841  56.336  13.405  0.00  0.00    -0.644 OA
ENDBRANCH   6  13
TORSDOF 3
ENDMDL
