MODEL 1
REMARK VINA RESULT:    -8.250      0.000      0.000
REMARK INTER + INTRA:          -8.250
REMARK INTER:                  -8.250
REMARK INTRA:                   0.000
REMARK UNBOUND:                 0.000
REMARK  0 active torsions:
REMARK  status: ('A' for Active; 'I' for Inactive)
ROOT
ATOM      1  C1  <0> d          17.825  54.834  14.395  0.00  0.00     0.021 C 
ATOM      2  C2  <0> d          17.167  54.989  13.023  0.00  0.00     0.088 C 
ATOM      3  C3  <0> d          17.031  56.484  12.657  0.00  0.00     0.033 C 
ATOM      4  C4  <0> d          17.178  57.323  13.927  0.00  0.00     0.010 C 
ATOM      5  C5  <0> d          17.028  58.795  13.545  0.00  0.00     0.018 C 
ATOM      6  C6  <0> d          15.659  59.092  13.021  0.00  0.00     0.000 C 
ATOM      7  C7  <0> d          14.836  59.776  14.083  0.00  0.00    -0.009 C 
ATOM      8  C8  <0> d          13.514  59.910  13.870  0.00  0.00     0.052 C 
ATOM      9  C9  <0> d          13.018  59.328  12.593  0.00  0.00     0.177 C 
ATOM     10  O1  <0> d          12.182  59.880  11.902  0.00  0.00    -0.288 OA
ATOM     11  C10 <0> d          13.621  58.019  12.229  0.00  0.00    -0.006 C 
ATOM     12  C11 <0> d          14.950  57.901  12.466  0.00  0.00    -0.029 C 
ATOM     13  C12 <0> d          15.590  56.590  12.137  0.00  0.00     0.167 C 
ATOM     14  O2  <0> d          14.873  55.506  12.799  0.00  0.00    -0.311 OA
ATOM     15  C13 <0> d          15.712  54.490  13.049  0.00  0.00     0.263 C 
ATOM     16  O3  <0> d          15.376  53.348  13.258  0.00  0.00    -0.265 OA
ATOM     17  C14 <0> d          12.808  56.897  11.637  0.00  0.00     0.052 C 
ATOM     18  C15 <0> d          15.825  60.091  11.874  0.00  0.00     0.025 C 
ENDROOT
TORSDOF 0
ENDMDL
MODEL 2
REMARK VINA RESULT:    -7.901      9.265     12.461
REMARK INTER + INTRA:          -7.901
REMARK INTER:                  -7.901
REMARK INTRA:                   0.000
REMARK UNBOUND:                 0.000
REMARK  0 active torsions:
REMARK  status: ('A' for Active; 'I' for Inactive)
ROOT
ATOM      1  C1  <0> d          12.569  50.053  19.545  0.00  0.00     0.021 C 
ATOM      2  C2  <0> d          13.192  49.117  18.507  0.00  0.00     0.088 C 
ATOM      3  C3  <0> d          13.931  47.954  19.206  0.00  0.00     0.033 C 
ATOM      4  C4  <0> d          14.183  48.329  20.666  0.00  0.00     0.010 C 
ATOM      5  C5  <0> d          14.924  47.172  21.335  0.00  0.00     0.018 C 
ATOM      6  C6  <0> d          16.276  46.961  20.732  0.00  0.00     0.000 C 
ATOM      7  C7  <0> d          17.340  47.536  21.634  0.00  0.00    -0.009 C 
ATOM      8  C8  <0> d          18.591  47.644  21.148  0.00  0.00     0.052 C 
ATOM      9  C9  <0> d          18.762  47.195  19.739  0.00  0.00     0.177 C 
ATOM     10  O1  <0> d          19.731  46.562  19.366  0.00  0.00    -0.288 OA
ATOM     11  C10 <0> d          17.657  47.582  18.823  0.00  0.00    -0.006 C 
ATOM     12  C11 <0> d          16.408  47.480  19.338  0.00  0.00    -0.029 C 
ATOM     13  C12 <0> d          15.269  47.884  18.456  0.00  0.00     0.167 C 
ATOM     14  O2  <0> d          15.485  49.235  17.951  0.00  0.00    -0.311 OA
ATOM     15  C13 <0> d          14.306  49.830  17.720  0.00  0.00     0.263 C 
ATOM     16  O3  <0> d          14.139  50.783  16.996  0.00  0.00    -0.265 OA
ATOM     17  C14 <0> d          17.909  48.057  17.416  0.00  0.00     0.052 C 
ATOM     18  C15 <0> d          16.511  45.450  20.674  0.00  0.00     0.025 C 
ENDROOT
TORSDOF 0
ENDMDL
MODEL 3
REMARK VINA RESULT:    -7.490      1.921      5.502
REMARK INTER + INTRA:          -7.490
REMARK INTER:                  -7.490
REMARK INTRA:                   0.000
REMARK UNBOUND:                 0.000
REMARK  0 active torsions:
REMARK  status: ('A' for Active; 'I' for Inactive)
ROOT
ATOM      1  C1  <0> d          13.093  58.197  12.136  0.00  0.00     0.021 C 
ATOM      2  C2  <0> d          14.567  58.532  11.896  0.00  0.00     0.088 C 
ATOM      3  C3  <0> d          15.399  57.236  11.760  0.00  0.00     0.033 C 
ATOM      4  C4  <0> d          14.598  56.068  12.334  0.00  0.00     0.010 C 
ATOM      5  C5  <0> d          15.441  54.801  12.200  0.00  0.00     0.018 C 
ATOM      6  C6  <0> d          16.689  54.879  13.022  0.00  0.00     0.000 C 
ATOM      7  C7  <0> d          16.529  54.068  14.283  0.00  0.00    -0.009 C 
ATOM      8  C8  <0> d          17.458  54.208  15.248  0.00  0.00     0.052 C 
ATOM      9  C9  <0> d          18.535  55.191  14.949  0.00  0.00     0.177 C 
ATOM     10  O1  <0> d          19.701  54.990  15.230  0.00  0.00    -0.288 OA
ATOM     11  C10 <0> d          18.074  56.437  14.283  0.00  0.00    -0.006 C 
ATOM     12  C11 <0> d          17.129  56.274  13.326  0.00  0.00    -0.029 C 
ATOM     13  C12 <0> d          16.621  57.507  12.648  0.00  0.00     0.167 C 
ATOM     14  O2  <0> d          16.154  58.465  13.644  0.00  0.00    -0.311 OA
ATOM     15  C13 <0> d          15.182  59.227  13.123  0.00  0.00     0.263 C 
ATOM     16  O3  <0> d          14.841  60.305  13.549  0.00  0.00    -0.265 OA
ATOM     17  C14 <0> d          18.622  57.793  14.648  0.00  0.00     0.052 C 
ATOM     18  C15 <0> d          17.805  54.222  12.208  0.00  0.00     0.025 C 
ENDROOT
TORSDOF 0
ENDMDL
MODEL 4
REMARK VINA RESULT:    -7.304      8.432     11.195
REMARK INTER + INTRA:          -7.304
REMARK INTER:                  -7.304
REMARK INTRA:                   0.000
REMARK UNBOUND:                 0.000
REMARK  0 active torsions:
REMARK  status: ('A' for Active; 'I' for Inactive)
ROOT
ATOM      1  C1  <0> d          15.971  45.264  21.072  0.00  0.00     0.021 C 
ATOM      2  C2  <0> d          16.508  46.697  21.047  0.00  0.00     0.088 C 
ATOM      3  C3  <0> d          15.411  47.674  20.565  0.00  0.00     0.033 C 
ATOM      4  C4  <0> d          14.312  46.881  19.860  0.00  0.00     0.010 C 
ATOM      5  C5  <0> d          13.246  47.865  19.382  0.00  0.00     0.018 C 
ATOM      6  C6  <0> d          13.786  48.809  18.355  0.00  0.00     0.000 C 
ATOM      7  C7  <0> d          13.335  48.388  16.979  0.00  0.00    -0.009 C 
ATOM      8  C8  <0> d          13.911  48.981  15.916  0.00  0.00     0.052 C 
ATOM      9  C9  <0> d          14.965  49.979  16.243  0.00  0.00     0.177 C 
ATOM     10  O1  <0> d          15.079  51.032  15.644  0.00  0.00    -0.288 OA
ATOM     11  C10 <0> d          15.868  49.590  17.358  0.00  0.00    -0.006 C 
ATOM     12  C11 <0> d          15.268  48.983  18.411  0.00  0.00    -0.029 C 
ATOM     13  C12 <0> d          16.146  48.553  19.543  0.00  0.00     0.167 C 
ATOM     14  O2  <0> d          17.231  47.716  19.042  0.00  0.00    -0.311 OA
ATOM     15  C13 <0> d          17.617  46.853  19.993  0.00  0.00     0.263 C 
ATOM     16  O3  <0> d          18.683  46.284  20.022  0.00  0.00    -0.265 OA
ATOM     17  C14 <0> d          17.351  49.853  17.320  0.00  0.00     0.052 C 
ATOM     18  C15 <0> d          13.162  50.178  18.630  0.00  0.00     0.025 C 
ENDROOT
TORSDOF 0
ENDMDL
MODEL 5
REMARK VINA RESULT:    -7.286      8.546     12.093
REMARK INTER + INTRA:          -7.286
REMARK INTER:                  -7.286
REMARK INTRA:                   0.000
REMARK UNBOUND:                 0.000
REMARK  0 active torsions:
REMARK  status: ('A' for Active; 'I' for Inactive)
ROOT
ATOM      1  C1  <0> d          13.464  50.520  16.953  0.00  0.00     0.021 C 
ATOM      2  C2  <0> d          14.474  49.487  16.449  0.00  0.00     0.088 C 
ATOM      3  C3  <0> d          14.520  48.271  17.403  0.00  0.00     0.033 C 
ATOM      4  C4  <0> d          13.897  48.664  18.742  0.00  0.00     0.010 C 
ATOM      5  C5  <0> d          13.963  47.453  19.671  0.00  0.00     0.018 C 
ATOM      6  C6  <0> d          15.376  47.071  19.980  0.00  0.00     0.000 C 
ATOM      7  C7  <0> d          15.753  47.552  21.358  0.00  0.00    -0.009 C 
ATOM      8  C8  <0> d          17.051  47.502  21.713  0.00  0.00     0.052 C 
ATOM      9  C9  <0> d          17.973  46.991  20.663  0.00  0.00     0.177 C 
ATOM     10  O1  <0> d          18.898  46.241  20.912  0.00  0.00    -0.288 OA
ATOM     11  C10 <0> d          17.678  47.470  19.287  0.00  0.00    -0.006 C 
ATOM     12  C11 <0> d          16.365  47.526  18.957  0.00  0.00    -0.029 C 
ATOM     13  C12 <0> d          16.024  48.026  17.589  0.00  0.00     0.167 C 
ATOM     14  O2  <0> d          16.645  49.327  17.366  0.00  0.00    -0.311 OA
ATOM     15  C13 <0> d          15.908  50.043  16.506  0.00  0.00     0.263 C 
ATOM     16  O3  <0> d          16.309  50.984  15.863  0.00  0.00    -0.265 OA
ATOM     17  C14 <0> d          18.766  47.867  18.324  0.00  0.00     0.052 C 
ATOM     18  C15 <0> d          15.432  45.542  20.010  0.00  0.00     0.025 C 
ENDROOT
TORSDOF 0
ENDMDL
MODEL 6
REMARK VINA RESULT:    -7.025      9.572     11.194
REMARK INTER + INTRA:          -7.025
REMARK INTER:                  -7.025
REMARK INTRA:                   0.000
REMARK UNBOUND:                 0.000
REMARK  0 active torsions:
REMARK  status: ('A' for Active; 'I' for Inactive)
ROOT
ATOM      1  C1  <0> d          20.045  49.028  18.815  0.00  0.00     0.021 C 
ATOM      2  C2  <0> d          19.243  47.731  18.685  0.00  0.00     0.088 C 
ATOM      3  C3  <0> d          17.998  47.956  17.797  0.00  0.00     0.033 C 
ATOM      4  C4  <0> d          17.721  49.456  17.697  0.00  0.00     0.010 C 
ATOM      5  C5  <0> d          16.481  49.654  16.826  0.00  0.00     0.018 C 
ATOM      6  C6  <0> d          15.263  49.059  17.457  0.00  0.00     0.000 C 
ATOM      7  C7  <0> d          14.418  50.145  18.075  0.00  0.00    -0.009 C 
ATOM      8  C8  <0> d          13.406  49.776  18.883  0.00  0.00     0.052 C 
ATOM      9  C9  <0> d          13.265  48.309  19.089  0.00  0.00     0.177 C 
ATOM     10  O1  <0> d          12.183  47.753  19.122  0.00  0.00    -0.288 OA
ATOM     11  C10 <0> d          14.548  47.576  19.253  0.00  0.00    -0.006 C 
ATOM     12  C11 <0> d          15.556  47.974  18.439  0.00  0.00    -0.029 C 
ATOM     13  C12 <0> d          16.872  47.278  18.590  0.00  0.00     0.167 C 
ATOM     14  O2  <0> d          17.308  47.335  19.981  0.00  0.00    -0.311 OA
ATOM     15  C13 <0> d          18.647  47.311  20.040  0.00  0.00     0.263 C 
ATOM     16  O3  <0> d          19.294  47.001  21.012  0.00  0.00    -0.265 OA
ATOM     17  C14 <0> d          14.716  46.466  20.257  0.00  0.00     0.052 C 
ATOM     18  C15 <0> d          14.434  48.436  16.332  0.00  0.00     0.025 C 
ENDROOT
TORSDOF 0
ENDMDL
MODEL 7
REMARK VINA RESULT:    -6.708     11.712     13.984
REMARK INTER + INTRA:          -6.708
REMARK INTER:                  -6.708
REMARK INTRA:                   0.000
REMARK UNBOUND:                 0.000
REMARK  0 active torsions:
REMARK  status: ('A' for Active; 'I' for Inactive)
ROOT
ATOM      1  C1  <0> d          15.030  47.867  18.415  0.00  0.00     0.021 C 
ATOM      2  C2  <0> d          15.524  47.602  19.839  0.00  0.00     0.088 C 
ATOM      3  C3  <0> d          16.992  48.060  19.993  0.00  0.00     0.033 C 
ATOM      4  C4  <0> d          17.614  48.215  18.605  0.00  0.00     0.010 C 
ATOM      5  C5  <0> d          19.066  48.656  18.781  0.00  0.00     0.018 C 
ATOM      6  C6  <0> d          19.881  47.610  19.474  0.00  0.00     0.000 C 
ATOM      7  C7  <0> d          20.727  46.865  18.472  0.00  0.00    -0.009 C 
ATOM      8  C8  <0> d          21.347  45.742  18.880  0.00  0.00     0.052 C 
ATOM      9  C9  <0> d          21.090  45.355  20.293  0.00  0.00     0.177 C 
ATOM     10  O1  <0> d          21.961  44.920  21.023  0.00  0.00    -0.288 OA
ATOM     11  C10 <0> d          19.686  45.541  20.745  0.00  0.00    -0.006 C 
ATOM     12  C11 <0> d          19.077  46.671  20.311  0.00  0.00    -0.029 C 
ATOM     13  C12 <0> d          17.654  46.883  20.723  0.00  0.00     0.167 C 
ATOM     14  O2  <0> d          16.852  45.720  20.359  0.00  0.00    -0.311 OA
ATOM     15  C13 <0> d          15.585  46.092  20.130  0.00  0.00     0.263 C 
ATOM     16  O3  <0> d          14.629  45.354  20.153  0.00  0.00    -0.265 OA
ATOM     17  C14 <0> d          18.986  44.538  21.625  0.00  0.00     0.052 C 
ATOM     18  C15 <0> d          20.842  48.340  20.414  0.00  0.00     0.025 C 
ENDROOT
TORSDOF 0
ENDMDL
MODEL 8
REMARK VINA RESULT:    -6.511      9.954     12.638
REMARK INTER + INTRA:          -6.511
REMARK INTER:                  -6.511
REMARK INTRA:                   0.000
REMARK UNBOUND:                 0.000
REMARK  0 active torsions:
REMARK  status: ('A' for Active; 'I' for Inactive)
ROOT
ATOM      1  C1  <0> d          20.594  44.633  20.352  0.00  0.00     0.021 C 
ATOM      2  C2  <0> d          20.604  46.161  20.278  0.00  0.00     0.088 C 
ATOM      3  C3  <0> d          19.274  46.736  20.818  0.00  0.00     0.033 C 
ATOM      4  C4  <0> d          18.224  45.625  20.839  0.00  0.00     0.010 C 
ATOM      5  C5  <0> d          16.917  46.216  21.364  0.00  0.00     0.018 C 
ATOM      6  C6  <0> d          16.377  47.265  20.445  0.00  0.00     0.000 C 
ATOM      7  C7  <0> d          15.241  46.702  19.628  0.00  0.00    -0.009 C 
ATOM      8  C8  <0> d          14.788  47.430  18.590  0.00  0.00     0.052 C 
ATOM      9  C9  <0> d          15.502  48.715  18.359  0.00  0.00     0.177 C 
ATOM     10  O1  <0> d          14.924  49.740  18.052  0.00  0.00    -0.288 OA
ATOM     11  C10 <0> d          16.977  48.647  18.530  0.00  0.00    -0.006 C 
ATOM     12  C11 <0> d          17.411  47.899  19.573  0.00  0.00    -0.029 C 
ATOM     13  C12 <0> d          18.890  47.785  19.765  0.00  0.00     0.167 C 
ATOM     14  O2  <0> d          19.518  47.325  18.532  0.00  0.00    -0.311 OA
ATOM     15  C13 <0> d          20.637  46.643  18.817  0.00  0.00     0.263 C 
ATOM     16  O3  <0> d          21.542  46.440  18.043  0.00  0.00    -0.265 OA
ATOM     17  C14 <0> d          17.927  49.364  17.606  0.00  0.00     0.052 C 
ATOM     18  C15 <0> d          15.789  48.372  21.322  0.00  0.00     0.025 C 
ENDROOT
TORSDOF 0
ENDMDL
MODEL 9
REMARK VINA RESULT:    -6.492      9.218     12.726
REMARK INTER + INTRA:          -6.492
REMARK INTER:                  -6.492
REMARK INTRA:                   0.000
REMARK UNBOUND:                 0.000
REMARK  0 active torsions:
REMARK  status: ('A' for Active; 'I' for Inactive)
ROOT
ATOM      1  C1  <0> d          14.411  49.154  17.900  0.00  0.00     0.021 C 
ATOM      2  C2  <0> d          15.694  48.604  17.274  0.00  0.00     0.088 C 
ATOM      3  C3  <0> d          16.313  47.517  18.183  0.00  0.00     0.033 C 
ATOM      4  C4  <0> d          15.718  47.642  19.586  0.00  0.00     0.010 C 
ATOM      5  C5  <0> d          16.351  46.568  20.469  0.00  0.00     0.018 C 
ATOM      6  C6  <0> d          17.822  46.785  20.632  0.00  0.00     0.000 C 
ATOM      7  C7  <0> d          18.109  47.391  21.983  0.00  0.00    -0.009 C 
ATOM      8  C8  <0> d          19.347  47.865  22.214  0.00  0.00     0.052 C 
ATOM      9  C9  <0> d          20.290  47.754  21.067  0.00  0.00     0.177 C 
ATOM     10  O1  <0> d          21.456  47.437  21.206  0.00  0.00    -0.288 OA
ATOM     11  C10 <0> d          19.696  48.061  19.740  0.00  0.00    -0.006 C 
ATOM     12  C11 <0> d          18.444  47.585  19.536  0.00  0.00    -0.029 C 
ATOM     13  C12 <0> d          17.801  47.894  18.221  0.00  0.00     0.167 C 
ATOM     14  O2  <0> d          17.828  49.332  17.979  0.00  0.00    -0.311 OA
ATOM     15  C13 <0> d          16.786  49.686  17.213  0.00  0.00     0.263 C 
ATOM     16  O3  <0> d          16.715  50.702  16.563  0.00  0.00    -0.265 OA
ATOM     17  C14 <0> d          20.437  48.849  18.691  0.00  0.00     0.052 C 
ATOM     18  C15 <0> d          18.484  45.405  20.613  0.00  0.00     0.025 C 
ENDROOT
TORSDOF 0
ENDMDL
