MODEL 1
REMARK VINA RESULT:    -7.707      0.000      0.000
REMARK INTER + INTRA:          -9.308
REMARK INTER:                  -8.704
REMARK INTRA:                  -0.604
REMARK UNBOUND:                -0.249
REMARK  3 active torsions:
REMARK  status: ('A' for Active; 'I' for Inactive)
REMARK    1  A    between atoms: C6_1  and  N1_14 
REMARK    2  A    between atoms: N1_14  and  C5_16 
REMARK    3  A    between atoms: C5_16  and  C3_17 
ROOT
ATOM      1  C6  <0> d          15.840  54.885  12.938  0.00  0.00     0.133 A 
ATOM      2  C7  <0> d          17.013  55.257  13.618  0.00  0.00     0.122 A 
ATOM      3  C8  <0> d          17.571  54.342  14.527  0.00  0.00     0.138 A 
ATOM      4  N2  <0> d          18.689  54.950  15.039  0.00  0.00    -0.337 N 
ATOM      5  H1  <0> d          19.297  54.576  15.694  0.00  0.00     0.168 HD
ATOM      6  C9  <0> d          18.788  56.178  14.456  0.00  0.00     0.182 A 
ATOM      7  N3  <0> d          17.805  56.356  13.623  0.00  0.00    -0.346 N 
ATOM      8  H3  <0> d          17.653  57.194  13.061  1.00  0.00     0.167 HD
ATOM      9  N4  <0> d          16.975  53.167  14.709  0.00  0.00    -0.337 N 
ATOM     10  H4  <0> d          17.372  52.495  15.367  1.00  0.00     0.168 HD
ATOM     11  C10 <0> d          15.877  52.863  14.050  0.00  0.00     0.183 A 
ATOM     12  N5  <0> d          15.313  53.691  13.190  0.00  0.00    -0.337 N 
ATOM     13  H5  <0> d          14.459  53.410  12.710  1.00  0.00     0.168 HD
ENDROOT
BRANCH   1  14
ATOM     14  N1  <0> d          15.246  55.745  12.032  0.00  0.00    -0.368 N 
ATOM     15  H7  <0> d          15.608  55.833  11.137  0.00  0.00     0.161 HD
BRANCH  14  16
ATOM     16  C5  <0> d          14.069  56.524  12.425  0.00  0.00     0.186 C 
BRANCH  16  17
ATOM     17  C3  <0> d          14.479  57.948  12.700  0.00  0.00     0.070 A 
ATOM     18  O1  <0> d          15.740  58.392  12.827  0.00  0.00    -0.325 OA
ATOM     19  C4  <0> d          15.727  59.713  13.068  0.00  0.00     0.142 A 
ATOM     20  C1  <0> d          14.447  60.128  13.097  0.00  0.00     0.027 A 
ATOM     21  C2  <0> d          13.643  58.990  12.859  0.00  0.00     0.036 A 
ENDBRANCH  16  17
ENDBRANCH  14  16
ENDBRANCH   1  14
TORSDOF 3
ENDMDL
MODEL 2
REMARK VINA RESULT:    -7.460      1.786      2.414
REMARK INTER + INTRA:          -9.017
REMARK INTER:                  -8.772
REMARK INTRA:                  -0.246
REMARK UNBOUND:                -0.249
REMARK  3 active torsions:
REMARK  status: ('A' for Active; 'I' for Inactive)
REMARK    1  A    between atoms: C6_1  and  N1_14 
REMARK    2  A    between atoms: N1_14  and  C5_16 
REMARK    3  A    between atoms: C5_16  and  C3_17 
ROOT
ATOM      1  C6  <0> d          16.107  54.772  12.400  0.00  0.00     0.133 A 
ATOM      2  C7  <0> d          15.930  53.995  13.559  0.00  0.00     0.122 A 
ATOM      3  C8  <0> d          16.850  52.964  13.812  0.00  0.00     0.138 A 
ATOM      4  N2  <0> d          16.447  52.378  14.986  0.00  0.00    -0.337 N 
ATOM      5  H1  <0> d          16.878  51.633  15.432  0.00  0.00     0.168 HD
ATOM      6  C9  <0> d          15.332  53.037  15.409  0.00  0.00     0.182 A 
ATOM      7  N3  <0> d          15.030  53.985  14.571  0.00  0.00    -0.346 N 
ATOM      8  H3  <0> d          14.239  54.622  14.662  1.00  0.00     0.167 HD
ATOM      9  N4  <0> d          17.846  52.761  12.955  0.00  0.00    -0.337 N 
ATOM     10  H4  <0> d          18.520  52.015  13.130  1.00  0.00     0.168 HD
ATOM     11  C10 <0> d          17.972  53.514  11.883  0.00  0.00     0.183 A 
ATOM     12  N5  <0> d          17.130  54.492  11.600  0.00  0.00    -0.337 N 
ATOM     13  H5  <0> d          17.267  55.041  10.752  1.00  0.00     0.168 HD
ENDROOT
BRANCH   1  14
ATOM     14  N1  <0> d          15.233  55.801  12.098  0.00  0.00    -0.368 N 
ATOM     15  H7  <0> d          14.276  55.662  12.171  0.00  0.00     0.161 HD
BRANCH  14  16
ATOM     16  C5  <0> d          15.752  57.100  11.666  0.00  0.00     0.186 C 
BRANCH  16  17
ATOM     17  C3  <0> d          14.973  58.202  12.337  0.00  0.00     0.070 A 
ATOM     18  O1  <0> d          13.659  58.436  12.190  0.00  0.00    -0.325 OA
ATOM     19  C4  <0> d          13.307  59.497  12.935  0.00  0.00     0.142 A 
ATOM     20  C1  <0> d          14.402  59.952  13.570  0.00  0.00     0.027 A 
ATOM     21  C2  <0> d          15.476  59.118  13.184  0.00  0.00     0.036 A 
ENDBRANCH  16  17
ENDBRANCH  14  16
ENDBRANCH   1  14
TORSDOF 3
ENDMDL
MODEL 3
REMARK VINA RESULT:    -7.371      1.644      2.326
REMARK INTER + INTRA:          -8.913
REMARK INTER:                  -8.610
REMARK INTRA:                  -0.303
REMARK UNBOUND:                -0.249
REMARK  3 active torsions:
REMARK  status: ('A' for Active; 'I' for Inactive)
REMARK    1  A    between atoms: C6_1  and  N1_14 
REMARK    2  A    between atoms: N1_14  and  C5_16 
REMARK    3  A    between atoms: C5_16  and  C3_17 
ROOT
ATOM      1  C6  <0> d          15.103  55.248  12.443  0.00  0.00     0.133 A 
ATOM      2  C7  <0> d          15.655  54.228  13.237  0.00  0.00     0.122 A 
ATOM      3  C8  <0> d          16.875  53.660  12.834  0.00  0.00     0.138 A 
ATOM      4  N2  <0> d          17.178  52.707  13.773  0.00  0.00    -0.337 N 
ATOM      5  H1  <0> d          17.962  52.136  13.780  0.00  0.00     0.168 HD
ATOM      6  C9  <0> d          16.175  52.711  14.696  0.00  0.00     0.182 A 
ATOM      7  N3  <0> d          15.284  53.603  14.380  0.00  0.00    -0.346 N 
ATOM      8  H3  <0> d          14.435  53.802  14.911  1.00  0.00     0.167 HD
ATOM      9  N4  <0> d          17.459  54.104  11.725  0.00  0.00    -0.337 N 
ATOM     10  H4  <0> d          18.346  53.698  11.423  1.00  0.00     0.168 HD
ATOM     11  C10 <0> d          16.905  55.061  11.012  0.00  0.00     0.183 A 
ATOM     12  N5  <0> d          15.757  55.622  11.348  0.00  0.00    -0.337 N 
ATOM     13  H5  <0> d          15.366  56.355  10.757  1.00  0.00     0.168 HD
ENDROOT
BRANCH   1  14
ATOM     14  N1  <0> d          13.904  55.844  12.790  0.00  0.00    -0.368 N 
ATOM     15  H7  <0> d          13.393  55.505  13.541  0.00  0.00     0.161 HD
BRANCH  14  16
ATOM     16  C5  <0> d          13.405  56.987  12.021  0.00  0.00     0.186 C 
BRANCH  16  17
ATOM     17  C3  <0> d          14.058  58.251  12.518  0.00  0.00     0.070 A 
ATOM     18  O1  <0> d          15.379  58.489  12.559  0.00  0.00    -0.325 OA
ATOM     19  C4  <0> d          15.598  59.715  13.061  0.00  0.00     0.142 A 
ATOM     20  C1  <0> d          14.409  60.276  13.347  0.00  0.00     0.027 A 
ATOM     21  C2  <0> d          13.416  59.332  12.997  0.00  0.00     0.036 A 
ENDBRANCH  16  17
ENDBRANCH  14  16
ENDBRANCH   1  14
TORSDOF 3
ENDMDL
MODEL 4
REMARK VINA RESULT:    -7.298      1.252      1.799
REMARK INTER + INTRA:          -8.827
REMARK INTER:                  -8.397
REMARK INTRA:                  -0.430
REMARK UNBOUND:                -0.249
REMARK  3 active torsions:
REMARK  status: ('A' for Active; 'I' for Inactive)
REMARK    1  A    between atoms: C6_1  and  N1_14 
REMARK    2  A    between atoms: N1_14  and  C5_16 
REMARK    3  A    between atoms: C5_16  and  C3_17 
ROOT
ATOM      1  C6  <0> d          16.066  56.135  12.893  0.00  0.00     0.133 A 
ATOM      2  C7  <0> d          17.044  55.503  13.680  0.00  0.00     0.122 A 
ATOM      3  C8  <0> d          16.757  54.228  14.196  0.00  0.00     0.138 A 
ATOM      4  N2  <0> d          17.865  53.851  14.912  0.00  0.00    -0.337 N 
ATOM      5  H1  <0> d          17.982  53.017  15.392  0.00  0.00     0.168 HD
ATOM      6  C9  <0> d          18.772  54.865  14.824  0.00  0.00     0.182 A 
ATOM      7  N3  <0> d          18.288  55.832  14.101  0.00  0.00    -0.346 N 
ATOM      8  H3  <0> d          18.772  56.704  13.885  1.00  0.00     0.167 HD
ATOM      9  N4  <0> d          15.581  53.670  13.924  0.00  0.00    -0.337 N 
ATOM     10  H4  <0> d          15.363  52.744  14.293  1.00  0.00     0.168 HD
ATOM     11  C10 <0> d          14.695  54.301  13.182  0.00  0.00     0.183 A 
ATOM     12  N5  <0> d          14.917  55.502  12.680  0.00  0.00    -0.337 N 
ATOM     13  H5  <0> d          14.195  55.951  12.118  1.00  0.00     0.168 HD
ENDROOT
BRANCH   1  14
ATOM     14  N1  <0> d          16.291  57.391  12.359  0.00  0.00    -0.368 N 
ATOM     15  H7  <0> d          16.604  57.481  11.445  0.00  0.00     0.161 HD
BRANCH  14  16
ATOM     16  C5  <0> d          16.060  58.586  13.174  0.00  0.00     0.186 C 
BRANCH  16  17
ATOM     17  C3  <0> d          14.705  59.162  12.848  0.00  0.00     0.070 A 
ATOM     18  O1  <0> d          13.765  58.576  12.089  0.00  0.00    -0.325 OA
ATOM     19  C4  <0> d          12.688  59.375  12.014  0.00  0.00     0.142 A 
ATOM     20  C1  <0> d          12.934  60.487  12.730  0.00  0.00     0.027 A 
ATOM     21  C2  <0> d          14.233  60.350  13.268  0.00  0.00     0.036 A 
ENDBRANCH  16  17
ENDBRANCH  14  16
ENDBRANCH   1  14
TORSDOF 3
ENDMDL
MODEL 5
REMARK VINA RESULT:    -7.253      1.784      1.983
REMARK INTER + INTRA:          -8.774
REMARK INTER:                  -8.650
REMARK INTRA:                  -0.124
REMARK UNBOUND:                -0.249
REMARK  3 active torsions:
REMARK  status: ('A' for Active; 'I' for Inactive)
REMARK    1  A    between atoms: C6_1  and  N1_14 
REMARK    2  A    between atoms: N1_14  and  C5_16 
REMARK    3  A    between atoms: C5_16  and  C3_17 
ROOT
ATOM      1  C6  <0> d          15.267  54.771  13.187  0.00  0.00     0.133 A 
ATOM      2  C7  <0> d          16.434  54.099  12.784  0.00  0.00     0.122 A 
ATOM      3  C8  <0> d          16.982  53.141  13.653  0.00  0.00     0.138 A 
ATOM      4  N2  <0> d          18.096  52.650  13.021  0.00  0.00    -0.337 N 
ATOM      5  H1  <0> d          18.696  51.969  13.363  0.00  0.00     0.168 HD
ATOM      6  C9  <0> d          18.203  53.294  11.825  0.00  0.00     0.182 A 
ATOM      7  N3  <0> d          17.228  54.143  11.688  0.00  0.00    -0.346 N 
ATOM      8  H3  <0> d          17.084  54.748  10.879  1.00  0.00     0.167 HD
ATOM      9  N4  <0> d          16.382  52.905  14.816  0.00  0.00    -0.337 N 
ATOM     10  H4  <0> d          16.771  52.211  15.455  1.00  0.00     0.168 HD
ATOM     11  C10 <0> d          15.290  53.559  15.152  0.00  0.00     0.183 A 
ATOM     12  N5  <0> d          14.741  54.472  14.371  0.00  0.00    -0.337 N 
ATOM     13  H5  <0> d          13.899  54.956  14.681  1.00  0.00     0.168 HD
ENDROOT
BRANCH   1  14
ATOM     14  N1  <0> d          14.683  55.725  12.374  0.00  0.00    -0.368 N 
ATOM     15  H7  <0> d          13.770  55.609  12.068  0.00  0.00     0.161 HD
BRANCH  14  16
ATOM     16  C5  <0> d          15.444  56.910  11.972  0.00  0.00     0.186 C 
BRANCH  16  17
ATOM     17  C3  <0> d          14.703  58.152  12.397  0.00  0.00     0.070 A 
ATOM     18  O1  <0> d          13.422  58.438  12.112  0.00  0.00    -0.325 OA
ATOM     19  C4  <0> d          13.098  59.625  12.650  0.00  0.00     0.142 A 
ATOM     20  C1  <0> d          14.178  60.111  13.289  0.00  0.00     0.027 A 
ATOM     21  C2  <0> d          15.212  59.161  13.126  0.00  0.00     0.036 A 
ENDBRANCH  16  17
ENDBRANCH  14  16
ENDBRANCH   1  14
TORSDOF 3
ENDMDL
MODEL 6
REMARK VINA RESULT:    -6.943      2.837      6.055
REMARK INTER + INTRA:          -8.410
REMARK INTER:                  -8.115
REMARK INTRA:                  -0.294
REMARK UNBOUND:                -0.249
REMARK  3 active torsions:
REMARK  status: ('A' for Active; 'I' for Inactive)
REMARK    1  A    between atoms: C6_1  and  N1_14 
REMARK    2  A    between atoms: N1_14  and  C5_16 
REMARK    3  A    between atoms: C5_16  and  C3_17 
ROOT
ATOM      1  C6  <0> d          14.488  57.660  12.370  0.00  0.00     0.133 A 
ATOM      2  C7  <0> d          13.361  58.429  12.031  0.00  0.00     0.122 A 
ATOM      3  C8  <0> d          13.337  59.778  12.421  0.00  0.00     0.138 A 
ATOM      4  N2  <0> d          12.144  60.282  11.969  0.00  0.00    -0.337 N 
ATOM      5  H1  <0> d          11.827  61.192  12.079  0.00  0.00     0.168 HD
ATOM      6  C9  <0> d          11.488  59.269  11.336  0.00  0.00     0.182 A 
ATOM      7  N3  <0> d          12.203  58.184  11.374  0.00  0.00    -0.346 N 
ATOM      8  H3  <0> d          11.933  57.286  10.970  1.00  0.00     0.167 HD
ATOM      9  N4  <0> d          14.373  60.275  13.092  0.00  0.00    -0.337 N 
ATOM     10  H4  <0> d          14.366  61.254  13.380  1.00  0.00     0.168 HD
ATOM     11  C10 <0> d          15.407  59.516  13.388  0.00  0.00     0.183 A 
ATOM     12  N5  <0> d          15.472  58.242  13.047  0.00  0.00    -0.337 N 
ATOM     13  H5  <0> d          16.293  57.696  13.307  1.00  0.00     0.168 HD
ENDROOT
BRANCH   1  14
ATOM     14  N1  <0> d          14.568  56.326  12.013  0.00  0.00    -0.368 N 
ATOM     15  H7  <0> d          14.446  56.063  11.088  0.00  0.00     0.161 HD
BRANCH  14  16
ATOM     16  C5  <0> d          14.834  55.309  13.033  0.00  0.00     0.186 C 
BRANCH  16  17
ATOM     17  C3  <0> d          16.000  54.457  12.602  0.00  0.00     0.070 A 
ATOM     18  O1  <0> d          16.358  53.282  13.146  0.00  0.00    -0.325 OA
ATOM     19  C4  <0> d          17.442  52.807  12.512  0.00  0.00     0.142 A 
ATOM     20  C1  <0> d          17.789  53.682  11.550  0.00  0.00     0.027 A 
ATOM     21  C2  <0> d          16.860  54.745  11.608  0.00  0.00     0.036 A 
ENDBRANCH  16  17
ENDBRANCH  14  16
ENDBRANCH   1  14
TORSDOF 3
ENDMDL
MODEL 7
REMARK VINA RESULT:    -6.756      2.057      3.479
REMARK INTER + INTRA:          -8.190
REMARK INTER:                  -7.956
REMARK INTRA:                  -0.235
REMARK UNBOUND:                -0.249
REMARK  3 active torsions:
REMARK  status: ('A' for Active; 'I' for Inactive)
REMARK    1  A    between atoms: C6_1  and  N1_14 
REMARK    2  A    between atoms: N1_14  and  C5_16 
REMARK    3  A    between atoms: C5_16  and  C3_17 
ROOT
ATOM      1  C6  <0> d          16.255  57.875  13.010  0.00  0.00     0.133 A 
ATOM      2  C7  <0> d          16.532  56.592  12.509  0.00  0.00     0.122 A 
ATOM      3  C8  <0> d          17.662  55.917  13.000  0.00  0.00     0.138 A 
ATOM      4  N2  <0> d          17.693  54.709  12.352  0.00  0.00    -0.337 N 
ATOM      5  H1  <0> d          18.355  54.010  12.472  0.00  0.00     0.168 HD
ATOM      6  C9  <0> d          16.622  54.670  11.510  0.00  0.00     0.182 A 
ATOM      7  N3  <0> d          15.943  55.774  11.603  0.00  0.00    -0.346 N 
ATOM      8  H3  <0> d          15.097  55.992  11.075  1.00  0.00     0.167 HD
ATOM      9  N4  <0> d          18.423  56.513  13.914  0.00  0.00    -0.337 N 
ATOM     10  H4  <0> d          19.246  56.031  14.278  1.00  0.00     0.168 HD
ATOM     11  C10 <0> d          18.124  57.717  14.354  0.00  0.00     0.183 A 
ATOM     12  N5  <0> d          17.076  58.391  13.918  0.00  0.00    -0.337 N 
ATOM     13  H5  <0> d          16.893  59.325  14.286  1.00  0.00     0.168 HD
ENDROOT
BRANCH   1  14
ATOM     14  N1  <0> d          15.156  58.588  12.563  0.00  0.00    -0.368 N 
ATOM     15  H7  <0> d          14.655  58.275  11.794  0.00  0.00     0.161 HD
BRANCH  14  16
ATOM     16  C5  <0> d          14.751  59.816  13.250  0.00  0.00     0.186 C 
BRANCH  16  17
ATOM     17  C3  <0> d          13.389  60.239  12.762  0.00  0.00     0.070 A 
ATOM     18  O1  <0> d          12.576  59.513  11.977  0.00  0.00    -0.325 OA
ATOM     19  C4  <0> d          11.447  60.203  11.742  0.00  0.00     0.142 A 
ATOM     20  C1  <0> d          11.531  61.384  12.380  0.00  0.00     0.027 A 
ATOM     21  C2  <0> d          12.782  61.407  13.038  0.00  0.00     0.036 A 
ENDBRANCH  16  17
ENDBRANCH  14  16
ENDBRANCH   1  14
TORSDOF 3
ENDMDL
MODEL 8
REMARK VINA RESULT:    -6.740      2.287      5.188
REMARK INTER + INTRA:          -8.172
REMARK INTER:                  -7.593
REMARK INTRA:                  -0.579
REMARK UNBOUND:                -0.249
REMARK  3 active torsions:
REMARK  status: ('A' for Active; 'I' for Inactive)
REMARK    1  A    between atoms: C6_1  and  N1_14 
REMARK    2  A    between atoms: N1_14  and  C5_16 
REMARK    3  A    between atoms: C5_16  and  C3_17 
ROOT
ATOM      1  C6  <0> d          13.782  57.109  11.906  0.00  0.00     0.133 A 
ATOM      2  C7  <0> d          14.318  58.301  12.424  0.00  0.00     0.122 A 
ATOM      3  C8  <0> d          13.513  59.453  12.408  0.00  0.00     0.138 A 
ATOM      4  N2  <0> d          14.271  60.451  12.965  0.00  0.00    -0.337 N 
ATOM      5  H1  <0> d          13.998  61.373  13.098  0.00  0.00     0.168 HD
ATOM      6  C9  <0> d          15.478  59.912  13.296  0.00  0.00     0.182 A 
ATOM      7  N3  <0> d          15.503  58.651  12.979  0.00  0.00    -0.346 N 
ATOM      8  H3  <0> d          16.294  58.023  13.124  1.00  0.00     0.167 HD
ATOM      9  N4  <0> d          12.284  59.375  11.907  0.00  0.00    -0.337 N 
ATOM     10  H4  <0> d          11.691  60.205  11.892  1.00  0.00     0.168 HD
ATOM     11  C10 <0> d          11.824  58.236  11.432  0.00  0.00     0.183 A 
ATOM     12  N5  <0> d          12.545  57.130  11.421  0.00  0.00    -0.337 N 
ATOM     13  H5  <0> d          12.145  56.276  11.034  1.00  0.00     0.168 HD
ENDROOT
BRANCH   1  14
ATOM     14  N1  <0> d          14.528  55.944  11.894  0.00  0.00    -0.368 N 
ATOM     15  H7  <0> d          14.934  55.636  11.069  0.00  0.00     0.161 HD
BRANCH  14  16
ATOM     16  C5  <0> d          14.703  55.174  13.128  0.00  0.00     0.186 C 
BRANCH  16  17
ATOM     17  C3  <0> d          16.151  55.212  13.543  0.00  0.00     0.070 A 
ATOM     18  O1  <0> d          17.036  56.168  13.218  0.00  0.00    -0.325 OA
ATOM     19  C4  <0> d          18.230  55.876  13.760  0.00  0.00     0.142 A 
ATOM     20  C1  <0> d          18.116  54.721  14.441  0.00  0.00     0.027 A 
ATOM     21  C2  <0> d          16.776  54.294  14.301  0.00  0.00     0.036 A 
ENDBRANCH  16  17
ENDBRANCH  14  16
ENDBRANCH   1  14
TORSDOF 3
ENDMDL
MODEL 9
REMARK VINA RESULT:    -6.596      3.515      6.506
REMARK INTER + INTRA:          -8.002
REMARK INTER:                  -7.753
REMARK INTRA:                  -0.249
REMARK UNBOUND:                -0.249
REMARK  3 active torsions:
REMARK  status: ('A' for Active; 'I' for Inactive)
REMARK    1  A    between atoms: C6_1  and  N1_14 
REMARK    2  A    between atoms: N1_14  and  C5_16 
REMARK    3  A    between atoms: C5_16  and  C3_17 
ROOT
ATOM      1  C6  <0> d          16.061  53.160  14.240  0.00  0.00     0.133 A 
ATOM      2  C7  <0> d          15.401  54.201  13.563  0.00  0.00     0.122 A 
ATOM      3  C8  <0> d          16.003  54.729  12.409  0.00  0.00     0.138 A 
ATOM      4  N2  <0> d          15.159  55.712  11.958  0.00  0.00    -0.337 N 
ATOM      5  H1  <0> d          15.293  56.268  11.174  0.00  0.00     0.168 HD
ATOM      6  C9  <0> d          14.100  55.765  12.813  0.00  0.00     0.182 A 
ATOM      7  N3  <0> d          14.243  54.878  13.754  0.00  0.00    -0.346 N 
ATOM      8  H3  <0> d          13.585  54.717  14.517  1.00  0.00     0.167 HD
ATOM      9  N4  <0> d          17.166  54.229  12.000  0.00  0.00    -0.337 N 
ATOM     10  H4  <0> d          17.611  54.605  11.163  1.00  0.00     0.168 HD
ATOM     11  C10 <0> d          17.748  53.254  12.667  0.00  0.00     0.183 A 
ATOM     12  N5  <0> d          17.223  52.730  13.759  0.00  0.00    -0.337 N 
ATOM     13  H5  <0> d          17.719  51.982  14.243  1.00  0.00     0.168 HD
ENDROOT
BRANCH   1  14
ATOM     14  N1  <0> d          15.517  52.602  15.382  0.00  0.00    -0.368 N 
ATOM     15  H7  <0> d          14.811  53.065  15.860  0.00  0.00     0.161 HD
BRANCH  14  16
ATOM     16  C5  <0> d          16.008  51.312  15.873  0.00  0.00     0.186 C 
BRANCH  16  17
ATOM     17  C3  <0> d          14.852  50.501  16.399  0.00  0.00     0.070 A 
ATOM     18  O1  <0> d          14.319  50.598  17.627  0.00  0.00    -0.325 OA
ATOM     19  C4  <0> d          13.307  49.724  17.747  0.00  0.00     0.142 A 
ATOM     20  C1  <0> d          13.184  49.055  16.586  0.00  0.00     0.027 A 
ATOM     21  C2  <0> d          14.179  49.556  15.717  0.00  0.00     0.036 A 
ENDBRANCH  16  17
ENDBRANCH  14  16
ENDBRANCH   1  14
TORSDOF 3
ENDMDL
