MODEL 1
REMARK VINA RESULT:    -7.108      0.000      0.000
REMARK INTER + INTRA:          -8.261
REMARK INTER:                  -8.147
REMARK INTRA:                  -0.114
REMARK UNBOUND:                -0.115
REMARK  3 active torsions:
REMARK  status: ('A' for Active; 'I' for Inactive)
REMARK    1  A    between atoms: C3_3  and  S1_7 
REMARK    2  A    between atoms: C6_6  and  C7_13 
REMARK    3  A    between atoms: S1_7  and  N1_10 
ROOT
ATOM      1  C1  <0> d          13.386  58.204  11.962  0.00  0.00     0.020 A 
ATOM      2  C2  <0> d          12.587  59.324  12.062  0.00  0.00     0.026 A 
ATOM      3  C3  <0> d          13.051  60.455  12.711  0.00  0.00     0.079 A 
ATOM      4  C4  <0> d          14.320  60.471  13.263  0.00  0.00     0.026 A 
ATOM      5  C5  <0> d          15.130  59.359  13.171  0.00  0.00     0.020 A 
ATOM      6  C6  <0> d          14.668  58.214  12.518  0.00  0.00     0.040 A 
ENDROOT
BRANCH   3   7
ATOM      7  S1  <0> d          12.023  61.880  12.832  0.00  0.00     0.256 S 
ATOM      8  O3  <0> d          11.891  62.169  14.218  0.00  0.00    -0.201 OA
ATOM      9  O4  <0> d          12.530  62.826  11.901  0.00  0.00    -0.201 OA
BRANCH   7  10
ATOM     10  N1  <0> d          10.518  61.445  12.295  0.00  0.00    -0.324 N 
ATOM     11  H5  <0> d          10.219  61.719  11.415  0.00  0.00     0.169 HD
ATOM     12  H6  <0> d           9.935  60.917  12.863  0.00  0.00     0.169 HD
ENDBRANCH   7  10
ENDBRANCH   3   7
BRANCH   6  13
ATOM     13  C7  <0> d          15.529  57.020  12.416  0.00  0.00     0.209 C 
ATOM     14  O2  <0> d          16.516  56.916  13.129  0.00  0.00    -0.644 OA
ATOM     15  O1  <0> d          15.256  56.136  11.617  0.00  0.00    -0.644 OA
ENDBRANCH   6  13
TORSDOF 3
ENDMDL
MODEL 2
REMARK VINA RESULT:    -7.106      0.057      1.574
REMARK INTER + INTRA:          -8.259
REMARK INTER:                  -8.144
REMARK INTRA:                  -0.115
REMARK UNBOUND:                -0.115
REMARK  3 active torsions:
REMARK  status: ('A' for Active; 'I' for Inactive)
REMARK    1  A    between atoms: C3_3  and  S1_7 
REMARK    2  A    between atoms: C6_6  and  C7_13 
REMARK    3  A    between atoms: S1_7  and  N1_10 
ROOT
ATOM      1  C1  <0> d          15.135  59.354  13.155  0.00  0.00     0.020 A 
ATOM      2  C2  <0> d          14.324  60.467  13.226  0.00  0.00     0.026 A 
ATOM      3  C3  <0> d          13.062  60.447  12.659  0.00  0.00     0.079 A 
ATOM      4  C4  <0> d          12.604  59.309  12.016  0.00  0.00     0.026 A 
ATOM      5  C5  <0> d          13.403  58.189  11.937  0.00  0.00     0.020 A 
ATOM      6  C6  <0> d          14.679  58.202  12.508  0.00  0.00     0.040 A 
ENDROOT
BRANCH   3   7
ATOM      7  S1  <0> d          12.033  61.874  12.756  0.00  0.00     0.256 S 
ATOM      8  O3  <0> d          11.923  62.201  14.135  0.00  0.00    -0.201 OA
ATOM      9  O4  <0> d          12.525  62.794  11.792  0.00  0.00    -0.201 OA
BRANCH   7  10
ATOM     10  N1  <0> d          10.521  61.422  12.255  0.00  0.00    -0.324 N 
ATOM     11  H5  <0> d          10.391  61.077  11.358  0.00  0.00     0.169 HD
ATOM     12  H6  <0> d           9.766  61.504  12.858  0.00  0.00     0.169 HD
ENDBRANCH   7  10
ENDBRANCH   3   7
BRANCH   6  13
ATOM     13  C7  <0> d          15.539  57.007  12.426  0.00  0.00     0.209 C 
ATOM     14  O2  <0> d          15.257  56.102  11.655  0.00  0.00    -0.644 OA
ATOM     15  O1  <0> d          16.535  56.922  13.131  0.00  0.00    -0.644 OA
ENDBRANCH   6  13
TORSDOF 3
ENDMDL
MODEL 3
REMARK VINA RESULT:    -7.101      2.756      5.270
REMARK INTER + INTRA:          -8.254
REMARK INTER:                  -8.150
REMARK INTRA:                  -0.104
REMARK UNBOUND:                -0.115
REMARK  3 active torsions:
REMARK  status: ('A' for Active; 'I' for Inactive)
REMARK    1  A    between atoms: C3_3  and  S1_7 
REMARK    2  A    between atoms: C6_6  and  C7_13 
REMARK    3  A    between atoms: S1_7  and  N1_10 
ROOT
ATOM      1  C1  <0> d          12.638  59.292  12.095  0.00  0.00     0.020 A 
ATOM      2  C2  <0> d          13.318  58.097  11.991  0.00  0.00     0.026 A 
ATOM      3  C3  <0> d          14.602  57.981  12.493  0.00  0.00     0.079 A 
ATOM      4  C4  <0> d          15.213  59.062  13.104  0.00  0.00     0.026 A 
ATOM      5  C5  <0> d          14.545  60.263  13.216  0.00  0.00     0.020 A 
ATOM      6  C6  <0> d          13.248  60.388  12.712  0.00  0.00     0.040 A 
ENDROOT
BRANCH   3   7
ATOM      7  S1  <0> d          15.463  56.450  12.355  0.00  0.00     0.256 S 
ATOM      8  O3  <0> d          15.705  56.244  10.969  0.00  0.00    -0.201 OA
ATOM      9  O4  <0> d          16.510  56.485  13.314  0.00  0.00    -0.201 OA
BRANCH   7  10
ATOM     10  N1  <0> d          14.419  55.257  12.835  0.00  0.00    -0.324 N 
ATOM     11  H5  <0> d          14.205  55.150  13.774  0.00  0.00     0.169 HD
ATOM     12  H6  <0> d          14.024  54.665  12.176  0.00  0.00     0.169 HD
ENDBRANCH   7  10
ENDBRANCH   3   7
BRANCH   6  13
ATOM     13  C7  <0> d          12.528  61.670  12.828  0.00  0.00     0.209 C 
ATOM     14  O2  <0> d          12.130  62.051  13.919  0.00  0.00    -0.644 OA
ATOM     15  O1  <0> d          12.327  62.350  11.832  0.00  0.00    -0.644 OA
ENDBRANCH   6  13
TORSDOF 3
ENDMDL
MODEL 4
REMARK VINA RESULT:    -7.094      2.755      5.472
REMARK INTER + INTRA:          -8.246
REMARK INTER:                  -8.142
REMARK INTRA:                  -0.104
REMARK UNBOUND:                -0.115
REMARK  3 active torsions:
REMARK  status: ('A' for Active; 'I' for Inactive)
REMARK    1  A    between atoms: C3_3  and  S1_7 
REMARK    2  A    between atoms: C6_6  and  C7_13 
REMARK    3  A    between atoms: S1_7  and  N1_10 
ROOT
ATOM      1  C1  <0> d          14.539  60.262  13.221  0.00  0.00     0.020 A 
ATOM      2  C2  <0> d          15.205  59.059  13.110  0.00  0.00     0.026 A 
ATOM      3  C3  <0> d          14.600  57.984  12.484  0.00  0.00     0.079 A 
ATOM      4  C4  <0> d          13.323  58.107  11.964  0.00  0.00     0.026 A 
ATOM      5  C5  <0> d          12.645  59.303  12.068  0.00  0.00     0.020 A 
ATOM      6  C6  <0> d          13.250  60.393  12.699  0.00  0.00     0.040 A 
ENDROOT
BRANCH   3   7
ATOM      7  S1  <0> d          15.460  56.452  12.346  0.00  0.00     0.256 S 
ATOM      8  O3  <0> d          15.698  56.243  10.960  0.00  0.00    -0.201 OA
ATOM      9  O4  <0> d          16.510  56.489  13.302  0.00  0.00    -0.201 OA
BRANCH   7  10
ATOM     10  N1  <0> d          14.418  55.260  12.831  0.00  0.00    -0.324 N 
ATOM     11  H5  <0> d          13.980  55.321  13.694  0.00  0.00     0.169 HD
ATOM     12  H6  <0> d          14.246  54.501  12.253  0.00  0.00     0.169 HD
ENDBRANCH   7  10
ENDBRANCH   3   7
BRANCH   6  13
ATOM     13  C7  <0> d          12.530  61.675  12.814  0.00  0.00     0.209 C 
ATOM     14  O2  <0> d          12.341  62.362  11.821  0.00  0.00    -0.644 OA
ATOM     15  O1  <0> d          12.122  62.051  13.904  0.00  0.00    -0.644 OA
ENDBRANCH   6  13
TORSDOF 3
ENDMDL
MODEL 5
REMARK VINA RESULT:    -6.886      3.457      5.681
REMARK INTER + INTRA:          -8.008
REMARK INTER:                  -7.894
REMARK INTRA:                  -0.114
REMARK UNBOUND:                -0.115
REMARK  3 active torsions:
REMARK  status: ('A' for Active; 'I' for Inactive)
REMARK    1  A    between atoms: C3_3  and  S1_7 
REMARK    2  A    between atoms: C6_6  and  C7_13 
REMARK    3  A    between atoms: S1_7  and  N1_10 
ROOT
ATOM      1  C1  <0> d          15.081  59.830  13.199  0.00  0.00     0.020 A 
ATOM      2  C2  <0> d          16.087  58.886  13.214  0.00  0.00     0.026 A 
ATOM      3  C3  <0> d          15.825  57.584  12.825  0.00  0.00     0.079 A 
ATOM      4  C4  <0> d          14.554  57.220  12.417  0.00  0.00     0.026 A 
ATOM      5  C5  <0> d          13.538  58.152  12.398  0.00  0.00     0.020 A 
ATOM      6  C6  <0> d          13.795  59.469  12.789  0.00  0.00     0.040 A 
ENDROOT
BRANCH   3   7
ATOM      7  S1  <0> d          17.117  56.387  12.846  0.00  0.00     0.256 S 
ATOM      8  O3  <0> d          17.546  56.228  11.500  0.00  0.00    -0.201 OA
ATOM      9  O4  <0> d          18.005  56.766  13.888  0.00  0.00    -0.201 OA
BRANCH   7  10
ATOM     10  N1  <0> d          16.440  54.945  13.299  0.00  0.00    -0.324 N 
ATOM     11  H5  <0> d          15.487  54.803  13.195  0.00  0.00     0.169 HD
ATOM     12  H6  <0> d          16.998  54.243  13.671  0.00  0.00     0.169 HD
ENDBRANCH   7  10
ENDBRANCH   3   7
BRANCH   6  13
ATOM     13  C7  <0> d          12.713  60.471  12.771  0.00  0.00     0.209 C 
ATOM     14  O2  <0> d          12.818  61.495  13.430  0.00  0.00    -0.644 OA
ATOM     15  O1  <0> d          11.711  60.277  12.098  0.00  0.00    -0.644 OA
ENDBRANCH   6  13
TORSDOF 3
ENDMDL
MODEL 6
REMARK VINA RESULT:    -6.385      4.629      6.624
REMARK INTER + INTRA:          -7.433
REMARK INTER:                  -7.323
REMARK INTRA:                  -0.111
REMARK UNBOUND:                -0.115
REMARK  3 active torsions:
REMARK  status: ('A' for Active; 'I' for Inactive)
REMARK    1  A    between atoms: C3_3  and  S1_7 
REMARK    2  A    between atoms: C6_6  and  C7_13 
REMARK    3  A    between atoms: S1_7  and  N1_10 
ROOT
ATOM      1  C1  <0> d          16.219  57.422  12.757  0.00  0.00     0.020 A 
ATOM      2  C2  <0> d          16.725  56.154  12.947  0.00  0.00     0.026 A 
ATOM      3  C3  <0> d          15.869  55.073  13.065  0.00  0.00     0.079 A 
ATOM      4  C4  <0> d          14.499  55.256  12.992  0.00  0.00     0.026 A 
ATOM      5  C5  <0> d          13.979  56.519  12.802  0.00  0.00     0.020 A 
ATOM      6  C6  <0> d          14.837  57.615  12.682  0.00  0.00     0.040 A 
ENDROOT
BRANCH   3   7
ATOM      7  S1  <0> d          16.526  53.456  13.308  0.00  0.00     0.256 S 
ATOM      8  O3  <0> d          15.416  52.596  13.525  0.00  0.00    -0.201 OA
ATOM      9  O4  <0> d          17.466  53.239  12.264  0.00  0.00    -0.201 OA
BRANCH   7  10
ATOM     10  N1  <0> d          17.387  53.485  14.723  0.00  0.00    -0.324 N 
ATOM     11  H5  <0> d          17.102  54.057  15.452  0.00  0.00     0.169 HD
ATOM     12  H6  <0> d          18.176  52.931  14.821  0.00  0.00     0.169 HD
ENDBRANCH   7  10
ENDBRANCH   3   7
BRANCH   6  13
ATOM     13  C7  <0> d          14.287  58.968  12.478  0.00  0.00     0.209 C 
ATOM     14  O2  <0> d          14.770  59.920  13.073  0.00  0.00    -0.644 OA
ATOM     15  O1  <0> d          13.346  59.137  11.715  0.00  0.00    -0.644 OA
ENDBRANCH   6  13
TORSDOF 3
ENDMDL
MODEL 7
REMARK VINA RESULT:    -6.361      4.612      6.527
REMARK INTER + INTRA:          -7.406
REMARK INTER:                  -7.292
REMARK INTRA:                  -0.113
REMARK UNBOUND:                -0.115
REMARK  3 active torsions:
REMARK  status: ('A' for Active; 'I' for Inactive)
REMARK    1  A    between atoms: C3_3  and  S1_7 
REMARK    2  A    between atoms: C6_6  and  C7_13 
REMARK    3  A    between atoms: S1_7  and  N1_10 
ROOT
ATOM      1  C1  <0> d          14.256  56.710  12.671  0.00  0.00     0.020 A 
ATOM      2  C2  <0> d          14.788  55.451  12.854  0.00  0.00     0.026 A 
ATOM      3  C3  <0> d          16.137  55.296  13.119  0.00  0.00     0.079 A 
ATOM      4  C4  <0> d          16.963  56.404  13.203  0.00  0.00     0.026 A 
ATOM      5  C5  <0> d          16.445  57.669  13.023  0.00  0.00     0.020 A 
ATOM      6  C6  <0> d          15.084  57.833  12.755  0.00  0.00     0.040 A 
ENDROOT
BRANCH   3   7
ATOM      7  S1  <0> d          16.806  53.683  13.351  0.00  0.00     0.256 S 
ATOM      8  O3  <0> d          15.702  52.810  13.545  0.00  0.00    -0.201 OA
ATOM      9  O4  <0> d          17.761  53.488  12.317  0.00  0.00    -0.201 OA
BRANCH   7  10
ATOM     10  N1  <0> d          17.648  53.704  14.777  0.00  0.00    -0.324 N 
ATOM     11  H5  <0> d          18.048  54.529  15.092  0.00  0.00     0.169 HD
ATOM     12  H6  <0> d          17.742  52.890  15.297  0.00  0.00     0.169 HD
ENDBRANCH   7  10
ENDBRANCH   3   7
BRANCH   6  13
ATOM     13  C7  <0> d          14.524  59.183  12.561  0.00  0.00     0.209 C 
ATOM     14  O2  <0> d          13.518  59.337  11.884  0.00  0.00    -0.644 OA
ATOM     15  O1  <0> d          15.067  60.150  13.076  0.00  0.00    -0.644 OA
ENDBRANCH   6  13
TORSDOF 3
ENDMDL
MODEL 8
REMARK VINA RESULT:    -6.068      5.587      6.982
REMARK INTER + INTRA:          -7.069
REMARK INTER:                  -6.954
REMARK INTRA:                  -0.115
REMARK UNBOUND:                -0.115
REMARK  3 active torsions:
REMARK  status: ('A' for Active; 'I' for Inactive)
REMARK    1  A    between atoms: C3_3  and  S1_7 
REMARK    2  A    between atoms: C6_6  and  C7_13 
REMARK    3  A    between atoms: S1_7  and  N1_10 
ROOT
ATOM      1  C1  <0> d          16.926  52.603  13.607  0.00  0.00     0.020 A 
ATOM      2  C2  <0> d          17.097  53.529  12.598  0.00  0.00     0.026 A 
ATOM      3  C3  <0> d          16.266  54.632  12.518  0.00  0.00     0.079 A 
ATOM      4  C4  <0> d          15.258  54.816  13.449  0.00  0.00     0.026 A 
ATOM      5  C5  <0> d          15.075  53.899  14.462  0.00  0.00     0.020 A 
ATOM      6  C6  <0> d          15.911  52.783  14.549  0.00  0.00     0.040 A 
ENDROOT
BRANCH   3   7
ATOM      7  S1  <0> d          16.493  55.809  11.227  0.00  0.00     0.256 S 
ATOM      8  O3  <0> d          15.290  56.561  11.147  0.00  0.00    -0.201 OA
ATOM      9  O4  <0> d          17.758  56.417  11.450  0.00  0.00    -0.201 OA
BRANCH   7  10
ATOM     10  N1  <0> d          16.616  54.962   9.809  0.00  0.00    -0.324 N 
ATOM     11  H5  <0> d          16.930  54.045   9.818  0.00  0.00     0.169 HD
ATOM     12  H6  <0> d          16.376  55.385   8.970  0.00  0.00     0.169 HD
ENDBRANCH   7  10
ENDBRANCH   3   7
BRANCH   6  13
ATOM     13  C7  <0> d          15.721  51.798  15.631  0.00  0.00     0.209 C 
ATOM     14  O2  <0> d          14.727  51.853  16.340  0.00  0.00    -0.644 OA
ATOM     15  O1  <0> d          16.558  50.927  15.819  0.00  0.00    -0.644 OA
ENDBRANCH   6  13
TORSDOF 3
ENDMDL
MODEL 9
REMARK VINA RESULT:    -6.025      5.646      7.062
REMARK INTER + INTRA:          -7.020
REMARK INTER:                  -6.905
REMARK INTRA:                  -0.115
REMARK UNBOUND:                -0.115
REMARK  3 active torsions:
REMARK  status: ('A' for Active; 'I' for Inactive)
REMARK    1  A    between atoms: C3_3  and  S1_7 
REMARK    2  A    between atoms: C6_6  and  C7_13 
REMARK    3  A    between atoms: S1_7  and  N1_10 
ROOT
ATOM      1  C1  <0> d          15.133  53.803  14.708  0.00  0.00     0.020 A 
ATOM      2  C2  <0> d          15.293  54.738  13.707  0.00  0.00     0.026 A 
ATOM      3  C3  <0> d          16.218  54.527  12.699  0.00  0.00     0.079 A 
ATOM      4  C4  <0> d          16.987  53.377  12.687  0.00  0.00     0.026 A 
ATOM      5  C5  <0> d          16.838  52.433  13.682  0.00  0.00     0.020 A 
ATOM      6  C6  <0> d          15.907  52.639  14.703  0.00  0.00     0.040 A 
ENDROOT
BRANCH   3   7
ATOM      7  S1  <0> d          16.414  55.727  11.424  0.00  0.00     0.256 S 
ATOM      8  O3  <0> d          15.167  56.398  11.303  0.00  0.00    -0.201 OA
ATOM      9  O4  <0> d          17.626  56.416  11.699  0.00  0.00    -0.201 OA
BRANCH   7  10
ATOM     10  N1  <0> d          16.647  54.902  10.007  0.00  0.00    -0.324 N 
ATOM     11  H5  <0> d          16.008  54.992   9.284  0.00  0.00     0.169 HD
ATOM     12  H6  <0> d          17.421  54.328   9.903  0.00  0.00     0.169 HD
ENDBRANCH   7  10
ENDBRANCH   3   7
BRANCH   6  13
ATOM     13  C7  <0> d          15.743  51.634  15.770  0.00  0.00     0.209 C 
ATOM     14  O2  <0> d          14.763  51.672  16.500  0.00  0.00    -0.644 OA
ATOM     15  O1  <0> d          16.588  50.764  15.925  0.00  0.00    -0.644 OA
ENDBRANCH   6  13
TORSDOF 3
ENDMDL
