MODEL 1
REMARK VINA RESULT:    -8.741      0.000      0.000
REMARK INTER + INTRA:         -10.584
REMARK INTER:                  -9.635
REMARK INTRA:                  -0.948
REMARK CONF_INDEPENDENT:        0.895
REMARK UNBOUND:                 0.948
REMARK  3 active torsions:
REMARK  status: ('A' for Active; 'I' for Inactive)
REMARK    1  A    between atoms: C4_4  and  C9_9 
REMARK    2  A    between atoms: C5_5  and  C14_14 
REMARK    3  A    between atoms: C8_8  and  N4_24 
REMARK       I    between atoms: C9_9  and  N3_23 
ROOT
ATOM      1  C9  <0> d          12.912  49.081  16.003  0.00  0.00     0.247 C 
ATOM      2  C10 <0> d          14.509  49.524  17.947  0.00  0.00     0.122 C 
ATOM      3  C11 <0> d          15.484  48.743  16.212  0.00  0.00     0.122 C 
ATOM      4  C12 <0> d          18.150  50.520  17.292  0.00  0.00     0.141 C 
ATOM      5  C13 <0> d          16.939  48.704  18.343  0.00  0.00     0.142 C 
ATOM      6  C14 <0> d          16.671  50.903  17.294  0.00  0.00     0.097 C 
ATOM      7  C15 <0> d          15.984  49.530  17.463  0.00  0.00     0.055 C 
ATOM      8  C20 <0> d          19.470  48.690  18.416  0.00  0.00     0.190 C 
ATOM      9  N3  <0> d          14.149  49.171  16.585  0.00  0.00    -0.296 N 
ATOM     10  N5  <0> d          18.222  49.510  18.409  0.00  0.00     0.234 N 
ATOM     11  O1  <0> d          11.848  49.299  16.577  0.00  0.00    -0.270 OA
ATOM     12  H28 <0> d          18.199  50.040  19.292  0.00  0.00     0.203 HD
ENDROOT
BRANCH   6  13
ATOM     13  C5  <0> d          16.181  51.729  16.126  0.00  0.00     0.055 A 
ATOM     14  C1  <0> d          14.917  52.283  16.167  0.00  0.00     0.044 A 
ATOM     15  C3  <0> d          14.553  53.022  15.060  0.00  0.00     0.116 A 
ATOM     16  N1  <0> d          15.353  53.213  13.990  0.00  0.00    -0.223 NA
ATOM     17  C8  <0> d          16.560  52.623  14.071  0.00  0.00     0.217 A 
ATOM     18  N2  <0> d          17.032  51.881  15.090  0.00  0.00    -0.219 NA
BRANCH  17  19
ATOM     19  N4  <0> d          17.425  52.803  12.969  0.00  0.00    -0.306 N 
ATOM     20  C18 <0> d          17.067  52.283  11.665  0.00  0.00     0.131 C 
ATOM     21  C19 <0> d          18.673  53.522  13.125  0.00  0.00     0.131 C 
ENDBRANCH  17  19
ENDBRANCH   6  13
BRANCH   1  22
ATOM     22  C4  <0> d          12.872  48.667  14.592  0.00  0.00     0.047 A 
ATOM     23  C2  <0> d          12.130  47.560  14.086  0.00  0.00     0.024 A 
ATOM     24  C6  <0> d          12.284  47.413  12.725  0.00  0.00    -0.012 A 
ATOM     25  C16 <0> d          11.683  46.395  11.835  0.00  0.00     0.051 C 
ATOM     26  S1  <0> d          13.317  48.606  12.062  0.00  0.00    -0.098 SA
ATOM     27  C7  <0> d          13.563  49.324  13.598  0.00  0.00    -0.001 A 
ATOM     28  C17 <0> d          14.443  50.510  13.701  0.00  0.00     0.052 C 
ENDBRANCH   1  22
TORSDOF 3
ENDMDL
