MODEL 1
REMARK VINA RESULT:    -9.324      0.000      0.000
REMARK INTER + INTRA:         -13.041
REMARK INTER:                 -11.710
REMARK INTRA:                  -1.330
REMARK CONF_INDEPENDENT:        2.386
REMARK UNBOUND:                 1.330
REMARK  8 active torsions:
REMARK  status: ('A' for Active; 'I' for Inactive)
REMARK    1  A    between atoms: C3_3  and  C10_10 
REMARK    2  A    between atoms: C4_4  and  C8_8 
REMARK       I    between atoms: C4_4  and  N3_24 
REMARK    3  A    between atoms: C17_17  and  C20_20 
REMARK    4  A    between atoms: C17_17  and  C21_21 
REMARK    5  A    between atoms: C18_18  and  C19_19 
REMARK    6  A    between atoms: C18_18  and  N2_23 
REMARK    7  A    between atoms: C19_19  and  O2_26 
REMARK    8  A    between atoms: C21_21  and  N3_24 
ROOT
ATOM      1  C5  <0> d          17.815  56.528  11.131  0.00  0.00     0.005 C 
ATOM      2  C6  <0> d          17.795  55.748  12.451  0.00  0.00     0.014 C 
ATOM      3  C7  <0> d          16.315  54.633  10.863  0.00  0.00     0.017 C 
ATOM      4  C8  <0> d          15.446  56.281  11.827  0.00  0.00     0.090 C 
ATOM      5  C9  <0> d          16.427  56.165  10.606  0.00  0.00     0.003 C 
ATOM      6  C10 <0> d          16.390  55.128  12.349  0.00  0.00     0.022 C 
ENDROOT
BRANCH   4   7
ATOM      7  C4  <0> d          15.374  57.619  12.571  0.00  0.00     0.218 C 
ATOM      8  N3  <0> d          14.344  58.432  12.152  0.00  0.00    -0.310 N 
ATOM      9  H35 <0> d          13.737  58.101  11.414  0.00  0.00     0.149 HD
ATOM     10  O1  <0> d          16.194  57.868  13.448  0.00  0.00    -0.276 OA
BRANCH   8  11
ATOM     11  C21 <0> d          14.093  59.745  12.725  0.00  0.00     0.029 C 
ATOM     12  C14 <0> d          15.367  60.589  12.632  0.00  0.00     0.031 C 
ATOM     13  C15 <0> d          13.767  59.537  14.218  0.00  0.00     0.031 C 
BRANCH  11  14
ATOM     14  C17 <0> d          12.853  60.407  12.056  0.00  0.00     0.031 C 
BRANCH  14  15
ATOM     15  C20 <0> d          12.314  61.799  12.516  0.00  0.00    -0.036 C 
ATOM     16  C11 <0> d          11.867  61.785  13.989  0.00  0.00     0.011 C 
ATOM     17  C12 <0> d          11.055  62.104  11.667  0.00  0.00     0.011 C 
ATOM     18  C13 <0> d          13.315  62.940  12.296  0.00  0.00     0.011 C 
ENDBRANCH  14  15
ENDBRANCH  11  14
ENDBRANCH   8  11
ENDBRANCH   4   7
BRANCH   6  19
ATOM     19  C3  <0> d          16.002  54.175  13.524  0.00  0.00     0.037 A 
ATOM     20  C1  <0> d          15.059  53.177  13.498  0.00  0.00     0.042 A 
ATOM     21  C2  <0> d          15.095  52.624  14.792  0.00  0.00     0.132 A 
ATOM     22  N1  <0> d          15.990  53.221  15.583  0.00  0.00    -0.188 NA
ATOM     23  N2  <0> d          16.526  54.159  14.783  0.00  0.00    -0.226 N 
BRANCH  23  24
ATOM     24  C18 <0> d          17.558  55.028  15.298  0.00  0.00     0.160 C 
BRANCH  24  25
ATOM     25  C19 <0> d          18.949  54.420  15.174  0.00  0.00     0.180 C 
BRANCH  25  26
ATOM     26  O2  <0> d          19.931  55.418  15.422  0.00  0.00    -0.381 OA
ATOM     27  C16 <0> d          19.472  56.707  15.042  0.00  0.00     0.193 C 
ENDBRANCH  25  26
ENDBRANCH  24  25
ENDBRANCH  23  24
ENDBRANCH   6  19
TORSDOF 8
ENDMDL
