MODEL 1
REMARK VINA RESULT:   -10.605      0.000      0.000
REMARK INTER + INTRA:         -13.522
REMARK INTER:                 -12.395
REMARK INTRA:                  -1.127
REMARK CONF_INDEPENDENT:        1.790
REMARK UNBOUND:                 1.127
REMARK  6 active torsions:
REMARK  status: ('A' for Active; 'I' for Inactive)
REMARK    1  A    between atoms: C4_4  and  C18_18 
REMARK    2  A    between atoms: C6_6  and  N5_24 
REMARK    3  A    between atoms: C7_7  and  C8_8 
REMARK       I    between atoms: C8_8  and  N6_25 
REMARK    4  A    between atoms: C12_12  and  N7_26 
REMARK    5  A    between atoms: C18_18  and  N7_26 
REMARK    6  A    between atoms: C19_19  and  N4_23 
ROOT
ATOM      1  C9  <0> d          15.546  51.296  14.581  0.00  0.00     0.075 C 
ATOM      2  C10 <0> d          14.874  52.290  13.634  0.00  0.00     0.112 C 
ATOM      3  C11 <0> d          16.729  53.369  14.756  0.00  0.00     0.160 C 
ATOM      4  C12 <0> d          16.208  52.209  15.598  0.00  0.00     0.082 C 
ATOM      5  N5  <0> d          15.759  53.454  13.664  0.00  0.00    -0.309 N 
ENDROOT
BRANCH   5   6
ATOM      6  C6  <0> d          15.678  54.510  12.782  0.00  0.00     0.129 A 
ATOM      7  C3  <0> d          16.616  54.593  11.773  0.00  0.00     0.011 A 
ATOM      8  C5  <0> d          16.484  55.672  10.922  0.00  0.00     0.047 A 
ATOM      9  C13 <0> d          17.704  53.590  11.605  0.00  0.00     0.049 C 
ATOM     10  C14 <0> d          17.440  55.867   9.792  0.00  0.00     0.066 C 
ATOM     11  N2  <0> d          15.514  56.602  11.038  0.00  0.00    -0.228 NA
ATOM     12  C7  <0> d          14.660  56.411  12.062  0.00  0.00     0.218 A 
ATOM     13  N3  <0> d          14.684  55.405  12.957  0.00  0.00    -0.208 NA
BRANCH  12  14
ATOM     14  C8  <0> d          13.606  57.392  12.218  0.00  0.00     0.281 C 
ATOM     15  N6  <0> d          12.552  57.350  11.294  0.00  0.00    -0.312 N 
ATOM     16  C17 <0> d          11.440  58.275  11.302  0.00  0.00     0.128 C 
ATOM     17  H28 <0> d          12.588  56.679  10.534  0.00  0.00     0.149 HD
ATOM     18  O1  <0> d          13.657  58.244  13.126  0.00  0.00    -0.267 OA
ENDBRANCH  12  14
ENDBRANCH   5   6
BRANCH   4  19
ATOM     19  N7  <0> d          17.307  51.517  16.295  0.00  0.00     0.235 N 
ATOM     20  H29 <0> d          18.187  51.692  15.792  0.00  0.00     0.202 HD
ATOM     21  H30 <0> d          17.429  51.935  17.228  0.00  0.00     0.202 HD
BRANCH  19  22
ATOM     22  C18 <0> d          17.111  50.050  16.439  0.00  0.00     0.188 C 
BRANCH  22  23
ATOM     23  C4  <0> d          15.991  49.697  17.373  0.00  0.00     0.101 A 
ATOM     24  C1  <0> d          14.638  49.748  17.135  0.00  0.00     0.105 A 
ATOM     25  N4  <0> d          14.062  49.324  18.299  0.00  0.00    -0.293 N 
ATOM     26  C2  <0> d          15.071  49.039  19.175  0.00  0.00     0.189 A 
ATOM     27  N1  <0> d          16.254  49.254  18.644  0.00  0.00    -0.238 NA
BRANCH  25  28
ATOM     28  C19 <0> d          12.648  49.206  18.559  0.00  0.00     0.073 C 
ATOM     29  C15 <0> d          11.815  49.394  17.289  0.00  0.00     0.028 C 
ATOM     30  C16 <0> d          12.190  50.141  19.679  0.00  0.00     0.028 C 
ENDBRANCH  25  28
ENDBRANCH  22  23
ENDBRANCH  19  22
ENDBRANCH   4  19
TORSDOF 6
ENDMDL
