MODEL 1
REMARK VINA RESULT:    -8.077      0.000      0.000
REMARK INTER + INTRA:         -12.169
REMARK INTER:                  -9.867
REMARK INTRA:                  -2.303
REMARK CONF_INDEPENDENT:        1.790
REMARK UNBOUND:                 2.303
REMARK  6 active torsions:
REMARK  status: ('A' for Active; 'I' for Inactive)
REMARK    1  A    between atoms: C6_6  and  C19_19 
REMARK    2  A    between atoms: C8_8  and  C20_20 
REMARK    3  A    between atoms: C9_9  and  C16_16 
REMARK       I    between atoms: C9_9  and  N1_21 
REMARK    4  A    between atoms: C10_10  and  C17_17 
REMARK    5  A    between atoms: C19_19  and  N2_22 
REMARK    6  A    between atoms: C20_20  and  N1_21 
ROOT
ATOM      1  C13 <0> d          12.969  56.941  10.931  0.00  0.00     0.070 C 
ATOM      2  C14 <0> d          11.717  57.493  11.603  0.00  0.00     0.067 C 
ATOM      3  C16 <0> d          14.149  57.533  11.698  0.00  0.00     0.153 C 
ATOM      4  C17 <0> d          12.135  58.861  12.109  0.00  0.00     0.122 C 
ATOM      5  N2  <0> d          13.544  58.600  12.597  0.00  0.00     0.254 N 
ATOM      6  H26 <0> d          13.437  58.182  13.531  0.00  0.00     0.205 HD
ENDROOT
BRANCH   3   7
ATOM      7  C9  <0> d          14.878  56.514  12.512  0.00  0.00     0.264 C 
ATOM      8  N1  <0> d          16.090  56.053  11.997  0.00  0.00    -0.296 N 
ATOM      9  C18 <0> d          16.632  56.532  10.731  0.00  0.00     0.132 C 
ATOM     10  O2  <0> d          14.390  56.132  13.578  0.00  0.00    -0.269 OA
BRANCH   8  11
ATOM     11  C20 <0> d          16.905  55.057  12.689  0.00  0.00     0.140 C 
BRANCH  11  12
ATOM     12  C8  <0> d          17.828  55.784  13.618  0.00  0.00    -0.031 C 
ATOM     13  C7  <0> d          17.739  57.107  13.837  0.00  0.00    -0.022 C 
ATOM     14  C11 <0> d          18.698  57.820  14.741  0.00  0.00     0.055 C 
ATOM     15  C15 <0> d          19.921  56.959  15.039  0.00  0.00     0.164 C 
ATOM     16  O4  <0> d          19.501  55.646  15.404  0.00  0.00    -0.375 OA
ATOM     17  C12 <0> d          18.882  54.957  14.309  0.00  0.00     0.192 C 
ENDBRANCH  11  12
ENDBRANCH   8  11
ENDBRANCH   3   7
BRANCH   5  18
ATOM     18  C19 <0> d          14.393  59.818  12.782  0.00  0.00     0.169 C 
BRANCH  18  19
ATOM     19  C6  <0> d          13.593  61.052  13.078  0.00  0.00    -0.003 A 
ATOM     20  C4  <0> d          12.561  61.006  14.016  0.00  0.00     0.009 A 
ATOM     21  C2  <0> d          11.816  62.154  14.291  0.00  0.00     0.001 A 
ATOM     22  C1  <0> d          12.105  63.347  13.628  0.00  0.00     0.000 A 
ATOM     23  C3  <0> d          13.138  63.393  12.691  0.00  0.00     0.001 A 
ATOM     24  C5  <0> d          13.881  62.246  12.416  0.00  0.00     0.009 A 
ENDBRANCH  18  19
ENDBRANCH   5  18
BRANCH   4  25
ATOM     25  C10 <0> d          11.987  59.860  10.979  0.00  0.00     0.136 C 
ATOM     26  O1  <0> d          12.940  59.883  10.151  0.00  0.00    -0.844 OA
ATOM     27  O3  <0> d          10.924  60.541  11.010  0.00  0.00    -0.303 OA
ENDBRANCH   4  25
TORSDOF 6
ENDMDL
