MODEL 1
REMARK VINA RESULT:    -9.276      0.000      0.000
REMARK INTER + INTRA:         -11.400
REMARK INTER:                 -10.469
REMARK INTRA:                  -0.931
REMARK CONF_INDEPENDENT:        1.193
REMARK UNBOUND:                 0.931
REMARK  4 active torsions:
REMARK  status: ('A' for Active; 'I' for Inactive)
REMARK    1  A    between atoms: C3_3  and  C7_7 
REMARK    2  A    between atoms: C5_5  and  C14_14 
REMARK    3  A    between atoms: C6_6  and  C15_15 
REMARK       I    between atoms: C7_7  and  N6_24 
REMARK    4  A    between atoms: C16_16  and  C17_17 
ROOT
ATOM      1  C7  <0> d          15.850  53.372  14.894  0.00  0.00     0.267 C 
ATOM      2  C12 <0> d          14.815  51.207  14.025  0.00  0.00     0.119 C 
ATOM      3  C13 <0> d          14.872  51.653  16.390  0.00  0.00     0.112 C 
ATOM      4  C15 <0> d          14.514  49.912  14.788  0.00  0.00     0.076 C 
ATOM      5  C17 <0> d          13.975  50.441  16.136  0.00  0.00     0.021 C 
ATOM      6  N6  <0> d          15.197  52.161  15.065  0.00  0.00    -0.295 N 
ATOM      7  O1  <0> d          16.153  54.146  15.799  0.00  0.00    -0.268 OA
ENDROOT
BRANCH   4   8
ATOM      8  C6  <0> d          13.599  48.967  14.049  0.00  0.00     0.121 A 
ATOM      9  N3  <0> d          12.609  48.254  14.537  0.00  0.00    -0.218 NA
ATOM     10  C5  <0> d          12.145  47.601  13.431  0.00  0.00     0.152 A 
ATOM     11  N4  <0> d          12.784  47.865  12.289  0.00  0.00    -0.166 NA
ATOM     12  N5  <0> d          13.709  48.741  12.712  0.00  0.00    -0.222 N 
ATOM     13  H22 <0> d          14.364  49.131  12.044  0.00  0.00     0.176 HD
BRANCH  10  14
ATOM     14  C14 <0> d          10.964  46.629  13.494  0.00  0.00     0.059 A 
ATOM     15  C8  <0> d           9.842  46.778  12.488  0.00  0.00     0.012 A 
ATOM     16  C9  <0> d           9.609  47.152  13.919  0.00  0.00     0.012 A 
ENDBRANCH  10  14
ENDBRANCH   4   8
BRANCH   5  17
ATOM     17  C16 <0> d          14.036  49.419  17.261  0.00  0.00    -0.006 A 
ATOM     18  C10 <0> d          13.533  49.771  18.632  0.00  0.00     0.004 A 
ATOM     19  C11 <0> d          12.775  48.790  17.782  0.00  0.00     0.004 A 
ENDBRANCH   5  17
BRANCH   1  20
ATOM     20  C3  <0> d          16.222  53.756  13.523  0.00  0.00     0.148 A 
ATOM     21  C1  <0> d          17.311  53.183  12.897  0.00  0.00     0.036 A 
ATOM     22  C2  <0> d          17.607  53.591  11.608  0.00  0.00     0.027 A 
ATOM     23  C4  <0> d          16.793  54.544  11.030  0.00  0.00     0.061 A 
ATOM     24  C18 <0> d          17.065  55.017   9.643  0.00  0.00     0.067 C 
ATOM     25  N2  <0> d          15.733  55.088  11.666  0.00  0.00    -0.154 NA
ATOM     26  N1  <0> d          15.443  54.687  12.933  0.00  0.00    -0.144 NA
ENDBRANCH   1  20
TORSDOF 4
ENDMDL
