MODEL 1
REMARK VINA RESULT:    -9.257      0.000      0.000
REMARK INTER + INTRA:         -11.220
REMARK INTER:                  -9.854
REMARK INTRA:                  -1.366
REMARK CONF_INDEPENDENT:        0.597
REMARK UNBOUND:                 1.366
REMARK  2 active torsions:
REMARK  status: ('A' for Active; 'I' for Inactive)
REMARK    1  A    between atoms: C3_3  and  C9_9 
REMARK       I    between atoms: C3_3  and  N4_19 
REMARK    2  A    between atoms: C11_11  and  N4_19 
ROOT
ATOM      1  C3  <0> d          15.139  59.412  13.326  0.00  0.00     0.222 C 
ATOM      2  N4  <0> d          15.606  58.119  13.260  0.00  0.00    -0.311 N 
ATOM      3  O1  <0> d          15.798  60.438  13.203  0.00  0.00    -0.275 OA
ATOM      4  H22 <0> d          14.949  57.360  13.381  0.00  0.00     0.149 HD
ENDROOT
BRANCH   1   5
ATOM      5  C9  <0> d          13.665  59.507  13.577  0.00  0.00     0.127 C 
ATOM      6  C1  <0> d          12.936  58.674  12.595  0.00  0.00     0.095 A 
ATOM      7  C2  <0> d          12.169  59.184  11.578  0.00  0.00     0.051 A 
ATOM      8  N1  <0> d          12.919  57.311  12.546  0.00  0.00    -0.136 NA
ATOM      9  C4  <0> d          11.903  60.607  11.292  0.00  0.00     0.054 C 
ATOM     10  N3  <0> d          11.702  58.085  10.931  0.00  0.00    -0.222 N 
ATOM     11  C5  <0> d          12.941  61.470  12.042  0.00  0.00     0.007 C 
ATOM     12  C6  <0> d          13.199  60.983  13.490  0.00  0.00     0.019 C 
ATOM     13  N2  <0> d          12.154  56.956  11.513  0.00  0.00    -0.077 NA
ATOM     14  H21 <0> d          11.093  58.018  10.124  0.00  0.00     0.176 HD
ENDBRANCH   1   5
BRANCH   2  15
ATOM     15  C11 <0> d          17.006  57.797  13.023  0.00  0.00     0.087 C 
ATOM     16  C10 <0> d          17.841  57.540  14.314  0.00  0.00     0.041 C 
ATOM     17  C7  <0> d          19.114  57.947  15.042  0.00  0.00     0.036 C 
ATOM     18  C12 <0> d          18.617  56.528  13.405  0.00  0.00     0.131 C 
ATOM     19  C8  <0> d          19.740  56.566  15.394  0.00  0.00     0.160 C 
ATOM     20  O2  <0> d          19.345  55.689  14.309  0.00  0.00    -0.376 OA
ATOM     21  C13 <0> d          17.283  56.251  12.688  0.00  0.00     0.010 C 
ATOM     22  C14 <0> d          17.440  56.007  11.185  0.00  0.00     0.015 C 
ATOM     23  C15 <0> d          16.397  55.171  13.310  0.00  0.00     0.015 C 
ENDBRANCH   2  15
TORSDOF 2
ENDMDL
