MODEL 1
REMARK VINA RESULT:   -11.774      0.000      0.000
REMARK INTER + INTRA:         -14.357
REMARK INTER:                 -13.266
REMARK INTRA:                  -1.092
REMARK CONF_INDEPENDENT:        1.492
REMARK UNBOUND:                 1.092
REMARK  5 active torsions:
REMARK  status: ('A' for Active; 'I' for Inactive)
REMARK    1  A    between atoms: C9_9  and  C22_22 
REMARK    2  A    between atoms: C12_12  and  N4_26 
REMARK    3  A    between atoms: C13_13  and  C14_14 
REMARK       I    between atoms: C14_14  and  N5_27 
REMARK    4  A    between atoms: C18_18  and  N6_28 
REMARK    5  A    between atoms: C22_22  and  N6_28 
ROOT
ATOM      1  C15 <0> d          15.450  51.277  14.408  0.00  0.00     0.075 C 
ATOM      2  C16 <0> d          14.816  52.281  13.446  0.00  0.00     0.112 C 
ATOM      3  C17 <0> d          16.557  53.376  14.726  0.00  0.00     0.160 C 
ATOM      4  C18 <0> d          16.013  52.176  15.495  0.00  0.00     0.082 C 
ATOM      5  N4  <0> d          15.662  53.468  13.572  0.00  0.00    -0.309 N 
ENDROOT
BRANCH   4   6
ATOM      6  N6  <0> d          17.082  51.493  16.246  0.00  0.00     0.234 N 
ATOM      7  H26 <0> d          17.988  51.686  15.796  0.00  0.00     0.202 HD
ATOM      8  H27 <0> d          17.145  51.901  17.189  0.00  0.00     0.202 HD
BRANCH   6   9
ATOM      9  C22 <0> d          16.900  50.022  16.364  0.00  0.00     0.167 C 
BRANCH   9  10
ATOM     10  C9  <0> d          16.332  49.602  17.683  0.00  0.00     0.006 A 
ATOM     11  C3  <0> d          17.205  49.051  18.621  0.00  0.00     0.009 A 
ATOM     12  C1  <0> d          16.727  48.644  19.864  0.00  0.00     0.001 A 
ATOM     13  C2  <0> d          15.374  48.784  20.175  0.00  0.00     0.008 A 
ATOM     14  C7  <0> d          14.480  49.337  19.243  0.00  0.00    -0.015 A 
ATOM     15  C4  <0> d          13.117  49.492  19.524  0.00  0.00     0.028 A 
ATOM     16  C8  <0> d          14.968  49.748  17.985  0.00  0.00     0.008 A 
ATOM     17  C5  <0> d          12.300  50.045  18.552  0.00  0.00     0.111 A 
ATOM     18  N1  <0> d          12.731  50.450  17.338  0.00  0.00    -0.263 NA
ATOM     19  C6  <0> d          14.051  50.292  17.085  0.00  0.00     0.119 A 
ENDBRANCH   9  10
ENDBRANCH   6   9
ENDBRANCH   4   6
BRANCH   5  20
ATOM     20  C12 <0> d          15.611  54.549  12.718  0.00  0.00     0.129 A 
ATOM     21  C10 <0> d          16.566  54.644  11.725  0.00  0.00     0.011 A 
ATOM     22  C11 <0> d          16.463  55.747  10.902  0.00  0.00     0.047 A 
ATOM     23  C19 <0> d          17.640  53.628  11.546  0.00  0.00     0.049 C 
ATOM     24  C20 <0> d          17.439  55.957   9.792  0.00  0.00     0.066 C 
ATOM     25  N2  <0> d          15.507  56.689  11.028  0.00  0.00    -0.228 NA
ATOM     26  C13 <0> d          14.634  56.484  12.035  0.00  0.00     0.218 A 
ATOM     27  N3  <0> d          14.628  55.454  12.902  0.00  0.00    -0.208 NA
BRANCH  26  28
ATOM     28  C14 <0> d          13.593  57.477  12.201  0.00  0.00     0.281 C 
ATOM     29  N5  <0> d          12.540  57.462  11.275  0.00  0.00    -0.312 N 
ATOM     30  C21 <0> d          11.441  58.401  11.293  0.00  0.00     0.128 C 
ATOM     31  H25 <0> d          12.568  56.800  10.507  0.00  0.00     0.149 HD
ATOM     32  O1  <0> d          13.654  58.317  13.120  0.00  0.00    -0.267 OA
ENDBRANCH  26  28
ENDBRANCH   5  20
TORSDOF 5
ENDMDL
