MODEL 1
REMARK VINA RESULT:   -10.523      0.000      0.000
REMARK INTER + INTRA:         -12.167
REMARK INTER:                 -11.418
REMARK INTRA:                  -0.749
REMARK CONF_INDEPENDENT:        0.895
REMARK UNBOUND:                 0.749
REMARK  3 active torsions:
REMARK  status: ('A' for Active; 'I' for Inactive)
REMARK    1  A    between atoms: C5_5  and  C7_7 
REMARK    2  A    between atoms: C6_6  and  C20_20 
REMARK       I    between atoms: C7_7  and  N2_24 
REMARK    3  A    between atoms: N1_23  and  S1_27 
ROOT
ATOM      1  C7  <0> d          15.600  53.103  15.284  0.00  0.00     0.247 C 
ATOM      2  C11 <0> d          17.905  52.651  12.433  0.00  0.00     0.021 C 
ATOM      3  C12 <0> d          15.097  56.252  12.034  0.00  0.00     0.016 C 
ATOM      4  C15 <0> d          17.101  53.851  11.955  0.00  0.00     0.028 C 
ATOM      5  C16 <0> d          15.027  54.984  12.886  0.00  0.00     0.028 C 
ATOM      6  C17 <0> d          16.990  52.028  13.465  0.00  0.00     0.109 C 
ATOM      7  C18 <0> d          15.756  57.395  12.785  0.00  0.00     0.114 C 
ATOM      8  C19 <0> d          17.299  55.404  13.992  0.00  0.00     0.139 C 
ATOM      9  C21 <0> d          16.412  54.392  13.236  0.00  0.00     0.050 C 
ATOM     10  N2  <0> d          16.270  53.153  14.061  0.00  0.00    -0.291 N 
ATOM     11  O1  <0> d          14.987  54.027  15.813  0.00  0.00    -0.270 OA
ATOM     12  O2  <0> d          18.180  56.872  11.985  0.00  0.00    -0.247 OA
ATOM     13  S1  <0> d          17.439  57.017  13.225  0.00  0.00     0.050 S 
ENDROOT
BRANCH   1  14
ATOM     14  C5  <0> d          15.626  51.831  16.021  0.00  0.00     0.037 A 
ATOM     15  C1  <0> d          14.432  51.176  16.328  0.00  0.00     0.013 A 
ATOM     16  C3  <0> d          14.458  49.971  17.027  0.00  0.00     0.005 A 
ATOM     17  C6  <0> d          15.676  49.418  17.421  0.00  0.00    -0.044 A 
ATOM     18  C4  <0> d          16.870  50.072  17.116  0.00  0.00     0.005 A 
ATOM     19  C2  <0> d          16.845  51.278  16.416  0.00  0.00     0.013 A 
BRANCH  17  20
ATOM     20  C20 <0> d          15.703  48.109  18.182  0.00  0.00     0.019 C 
ATOM     21  C13 <0> d          14.389  47.845  18.939  0.00  0.00     0.008 C 
ATOM     22  C9  <0> d          14.427  46.510  19.680  0.00  0.00     0.001 C 
ATOM     23  C8  <0> d          15.630  46.416  20.612  0.00  0.00     0.000 C 
ATOM     24  C10 <0> d          16.938  46.673  19.870  0.00  0.00     0.001 C 
ATOM     25  C14 <0> d          16.913  48.009  19.129  0.00  0.00     0.008 C 
ENDBRANCH  17  20
ENDBRANCH   1  14
BRANCH  13  26
ATOM     26  N1  <0> d          17.819  58.006  14.353  0.00  0.00    -0.239 NA
ATOM     27  C22 <0> d          19.097  57.882  15.042  0.00  0.00     0.181 C 
ENDBRANCH  13  26
TORSDOF 3
ENDMDL
