MODEL 1
REMARK VINA RESULT:   -10.096      0.000      0.000
REMARK INTER + INTRA:         -12.132
REMARK INTER:                 -11.289
REMARK INTRA:                  -0.843
REMARK CONF_INDEPENDENT:        1.193
REMARK UNBOUND:                 0.843
REMARK  4 active torsions:
REMARK  status: ('A' for Active; 'I' for Inactive)
REMARK    1  A    between atoms: C8_8  and  C17_17 
REMARK    2  A    between atoms: C10_10  and  C15_15 
REMARK    3  A    between atoms: C11_11  and  O1_22 
REMARK    4  A    between atoms: C17_17  and  N4_21 
ROOT
ATOM      1  C1  <0> d          11.251  60.278  11.820  0.00  0.00     0.099 C 
ATOM      2  C2  <0> d          12.150  58.021  11.540  0.00  0.00     0.019 A 
ATOM      3  C3  <0> d          13.174  57.092  11.722  0.00  0.00     0.010 A 
ATOM      4  C6  <0> d          13.476  59.703  12.658  0.00  0.00     0.022 A 
ATOM      5  C7  <0> d          12.300  59.327  12.008  0.00  0.00     0.052 A 
ATOM      6  C8  <0> d          14.349  57.469  12.372  0.00  0.00     0.000 A 
ATOM      7  C9  <0> d          14.500  58.774  12.840  0.00  0.00    -0.041 A 
ATOM      8  C16 <0> d          15.749  59.200  13.539  0.00  0.00     0.044 C 
ATOM      9  N1  <0> d          10.398  61.051  11.667  0.00  0.00    -0.191 NA
ENDROOT
BRANCH   6  10
ATOM     10  C17 <0> d          15.437  56.452  12.558  0.00  0.00     0.168 C 
BRANCH  10  11
ATOM     11  N4  <0> d          15.632  55.572  11.357  0.00  0.00     0.245 N 
ATOM     12  C14 <0> d          16.437  56.272  10.267  0.00  0.00     0.132 C 
ATOM     13  C12 <0> d          17.440  55.238   9.793  0.00  0.00     0.057 C 
ATOM     14  C13 <0> d          17.709  54.416  11.038  0.00  0.00     0.066 C 
ATOM     15  C15 <0> d          16.302  54.207  11.603  0.00  0.00     0.116 C 
ATOM     16  H18 <0> d          14.698  55.381  10.978  0.00  0.00     0.204 HD
BRANCH  15  17
ATOM     17  C10 <0> d          16.166  53.610  12.982  0.00  0.00     0.111 A 
ATOM     18  C4  <0> d          17.225  52.924  13.545  0.00  0.00     0.035 A 
ATOM     19  C5  <0> d          17.052  52.394  14.811  0.00  0.00     0.057 A 
ATOM     20  C11 <0> d          15.833  52.584  15.431  0.00  0.00     0.187 A 
ATOM     21  N3  <0> d          14.815  53.259  14.857  0.00  0.00    -0.124 NA
ATOM     22  N2  <0> d          14.985  53.780  13.612  0.00  0.00    -0.146 NA
BRANCH  20  23
ATOM     23  O1  <0> d          15.622  52.076  16.684  0.00  0.00    -0.343 OA
ATOM     24  H19 <0> d          16.461  52.028  17.166  0.00  0.00     0.219 HD
ENDBRANCH  20  23
ENDBRANCH  15  17
ENDBRANCH  10  11
ENDBRANCH   6  10
TORSDOF 4
ENDMDL
