MODEL 1
REMARK VINA RESULT:    -6.433      0.000      0.000
REMARK INTER + INTRA:          -8.347
REMARK INTER:                  -7.328
REMARK INTRA:                  -1.019
REMARK CONF_INDEPENDENT:        0.895
REMARK UNBOUND:                 1.019
REMARK  3 active torsions:
REMARK  status: ('A' for Active; 'I' for Inactive)
REMARK    1  A    between atoms: C6_1  and  N1_14 
REMARK    2  A    between atoms: N1_14  and  C5_16 
REMARK    3  A    between atoms: C5_16  and  C3_17 
ROOT
ATOM      1  C6  <0> d          11.126  46.753  12.463  0.00  0.00     0.133 A 
ATOM      2  C7  <0> d          10.840  46.028  11.293  0.00  0.00     0.122 A 
ATOM      3  C8  <0> d           9.513  46.009  10.832  0.00  0.00     0.138 A 
ATOM      4  N2  <0> d           9.518  45.242   9.695  0.00  0.00    -0.337 N 
ATOM      5  H1  <0> d           8.751  45.036   9.138  0.00  0.00     0.168 HD
ATOM      6  C9  <0> d          10.799  44.823   9.492  0.00  0.00     0.182 A 
ATOM      7  N3  <0> d          11.572  45.284  10.429  0.00  0.00    -0.346 N 
ATOM      8  H3  <0> d          12.575  45.114  10.503  1.00  0.00     0.167 HD
ATOM      9  N4  <0> d           8.583  46.672  11.514  0.00  0.00    -0.337 N 
ATOM     10  H4  <0> d           7.616  46.665  11.187  1.00  0.00     0.168 HD
ATOM     11  C10 <0> d           8.898  47.338  12.605  0.00  0.00     0.183 A 
ATOM     12  N5  <0> d          10.129  47.380  13.079  0.00  0.00    -0.337 N 
ATOM     13  H5  <0> d          10.319  47.904  13.933  1.00  0.00     0.168 HD
ENDROOT
BRANCH   1  14
ATOM     14  N1  <0> d          12.414  46.807  12.964  0.00  0.00    -0.368 N 
ATOM     15  H7  <0> d          12.896  45.987  13.153  0.00  0.00     0.161 HD
BRANCH  14  16
ATOM     16  C5  <0> d          13.050  48.103  13.212  0.00  0.00     0.186 C 
BRANCH  16  17
ATOM     17  C3  <0> d          12.795  48.524  14.637  0.00  0.00     0.070 A 
ATOM     18  O1  <0> d          11.699  48.235  15.357  0.00  0.00    -0.325 OA
ATOM     19  C4  <0> d          11.815  48.771  16.584  0.00  0.00     0.142 A 
ATOM     20  C1  <0> d          12.995  49.412  16.657  0.00  0.00     0.027 A 
ATOM     21  C2  <0> d          13.627  49.253  15.403  0.00  0.00     0.036 A 
ENDBRANCH  16  17
ENDBRANCH  14  16
ENDBRANCH   1  14
TORSDOF 3
ENDMDL
