MODEL 1
REMARK VINA RESULT:    -5.026      0.000      0.000
REMARK INTER + INTRA:          -5.681
REMARK INTER:                  -5.623
REMARK INTRA:                  -0.058
REMARK CONF_INDEPENDENT:        0.597
REMARK UNBOUND:                 0.058
REMARK  2 active torsions:
REMARK  status: ('A' for Active; 'I' for Inactive)
REMARK       I    between atoms: C2_2  and  N1_4 
REMARK    1  A    between atoms: C4_6  and  O4_12 
REMARK    2  A    between atoms: C6_8  and  C7_9 
ROOT
ATOM      1  C1  <0> d          11.716  47.001  13.913  0.00  0.00     0.117 C 
ATOM      2  C2  <0> d          11.462  46.762  12.447  0.00  0.00     0.216 C 
ATOM      3  O1  <0> d          12.395  46.663  11.678  0.00  0.00    -0.274 OA
ATOM      4  N1  <0> d          10.198  46.657  11.990  0.00  0.00    -0.335 N 
ATOM      5  C3  <0> d           8.977  46.763  12.810  0.00  0.00     0.158 C 
ATOM      6  C4  <0> d           7.870  47.196  11.817  0.00  0.00     0.138 C 
ATOM      7  C5  <0> d           8.266  46.404  10.544  0.00  0.00     0.070 C 
ATOM      8  C6  <0> d           9.808  46.425  10.592  0.00  0.00     0.190 C 
ENDROOT
BRANCH   8   9
ATOM      9  C7  <0> d          10.353  45.101  10.122  0.00  0.00     0.197 C 
ATOM     10  O2  <0> d          11.551  44.962   9.948  0.00  0.00    -0.646 OA
ATOM     11  O3  <0> d           9.594  44.168   9.917  0.00  0.00    -0.646 OA
ENDBRANCH   8   9
BRANCH   6  12
ATOM     12  O4  <0> d           6.579  46.800  12.285  0.00  0.00    -0.394 OA
ATOM     13  H10 <0> d           6.048  47.528  12.638  0.00  0.00     0.210 HD
ENDBRANCH   6  12
TORSDOF 2
ENDMDL
