MODEL 1
REMARK VINA RESULT:    -5.637      0.000      0.000
REMARK INTER + INTRA:          -6.851
REMARK INTER:                  -6.532
REMARK INTRA:                  -0.320
REMARK CONF_INDEPENDENT:        0.895
REMARK UNBOUND:                 0.320
REMARK  3 active torsions:
REMARK  status: ('A' for Active; 'I' for Inactive)
REMARK    1  A    between atoms: C5_1  and  O3_8 
REMARK    2  A    between atoms: O3_8  and  C2_9 
REMARK    3  A    between atoms: C2_9  and  C4_12 
ROOT
ATOM      1  C5  <0> d          14.891  59.112  12.180  0.00  0.00     0.070 A 
ATOM      2  C6  <0> d          15.848  59.821  12.892  0.00  0.00     0.038 A 
ATOM      3  C7  <0> d          16.865  59.148  13.541  0.00  0.00     0.026 A 
ATOM      4  C8  <0> d          16.929  57.766  13.483  0.00  0.00     0.034 A 
ATOM      5  C9  <0> d          15.976  57.057  12.774  0.00  0.00     0.026 A 
ATOM      6  C10 <0> d          14.954  57.727  12.128  0.00  0.00     0.038 A 
ATOM      7 Cl1  <0> d          18.208  56.923  14.299  0.00  0.00    -0.084 Cl
ENDROOT
BRANCH   1   8
ATOM      8  O3  <0> d          13.891  59.773  11.540  0.00  0.00    -0.330 OA
BRANCH   8   9
ATOM      9  C2  <0> d          12.831  60.287  12.350  0.00  0.00     0.148 C 
ATOM     10  C3  <0> d          12.941  59.707  13.762  0.00  0.00     0.058 C 
ATOM     11  C1  <0> d          12.934  61.812  12.416  0.00  0.00     0.058 C 
BRANCH   9  12
ATOM     12  C4  <0> d          11.505  59.898  11.749  0.00  0.00     0.209 C 
ATOM     13  O2  <0> d          10.498  60.519  12.042  0.00  0.00    -0.646 OA
ATOM     14  O1  <0> d          11.439  58.962  10.970  0.00  0.00    -0.646 OA
ENDBRANCH   9  12
ENDBRANCH   8   9
ENDBRANCH   1   8
TORSDOF 3
ENDMDL
