MODEL 1
REMARK VINA RESULT:    -5.419      0.000      0.000
REMARK INTER + INTRA:          -6.651
REMARK INTER:                  -6.314
REMARK INTRA:                  -0.337
REMARK CONF_INDEPENDENT:        0.895
REMARK UNBOUND:                 0.337
REMARK  3 active torsions:
REMARK  status: ('A' for Active; 'I' for Inactive)
REMARK    1  A    between atoms: C6_6  and  C10_12 
REMARK    2  A    between atoms: C7_7  and  O1_8 
REMARK    3  A    between atoms: O1_8  and  C8_9 
ROOT
ATOM      1  C1  <0> d          16.109  59.190  13.436  0.00  0.00     0.051 C 
ATOM      2  C2  <0> d          14.941  58.457  12.829  0.00  0.00    -0.027 A 
ATOM      3  C3  <0> d          14.973  57.081  12.718  0.00  0.00     0.009 A 
ATOM      4  C4  <0> d          13.904  56.397  12.162  0.00  0.00     0.002 A 
ATOM      5  C5  <0> d          12.796  57.083  11.714  0.00  0.00     0.021 A 
ATOM      6  C6  <0> d          12.749  58.476  11.822  0.00  0.00     0.075 A 
ATOM      7  C7  <0> d          13.832  59.163  12.390  0.00  0.00     0.102 A 
ENDROOT
BRANCH   7   8
ATOM      8  O1  <0> d          13.796  60.515  12.505  0.00  0.00    -0.278 OA
BRANCH   8   9
ATOM      9  C8  <0> d          13.118  61.043  13.537  0.00  0.00     0.260 C 
ATOM     10  O2  <0> d          13.315  60.639  14.658  0.00  0.00    -0.265 OA
ATOM     11  C9  <0> d          12.112  62.139  13.296  0.00  0.00     0.126 C 
ENDBRANCH   8   9
ENDBRANCH   7   8
BRANCH   6  12
ATOM     12  C10 <0> d          11.569  59.216  11.346  0.00  0.00     0.212 C 
ATOM     13  O4  <0> d          11.477  59.530  10.167  0.00  0.00    -0.644 OA
ATOM     14  O3  <0> d          10.680  59.519  12.131  0.00  0.00    -0.644 OA
ENDBRANCH   6  12
TORSDOF 3
ENDMDL
