MODEL 1
REMARK VINA RESULT:    -5.802      0.000      0.000
REMARK INTER + INTRA:          -6.892
REMARK INTER:                  -6.697
REMARK INTRA:                  -0.195
REMARK CONF_INDEPENDENT:        0.895
REMARK UNBOUND:                 0.195
REMARK  3 active torsions:
REMARK  status: ('A' for Active; 'I' for Inactive)
REMARK    1  A    between atoms: C3_3  and  S1_7 
REMARK    2  A    between atoms: C6_6  and  C7_13 
REMARK    3  A    between atoms: S1_7  and  N1_10 
ROOT
ATOM      1  C1  <0> d           9.089  46.500  11.263  0.00  0.00     0.020 A 
ATOM      2  C2  <0> d           9.865  46.984  12.296  0.00  0.00     0.026 A 
ATOM      3  C3  <0> d          11.227  46.744  12.315  0.00  0.00     0.079 A 
ATOM      4  C4  <0> d          11.823  46.018  11.297  0.00  0.00     0.026 A 
ATOM      5  C5  <0> d          11.060  45.529  10.258  0.00  0.00     0.020 A 
ATOM      6  C6  <0> d           9.684  45.767  10.232  0.00  0.00     0.040 A 
ENDROOT
BRANCH   3   7
ATOM      7  S1  <0> d          12.209  47.367  13.639  0.00  0.00     0.256 S 
ATOM      8  O3  <0> d          11.306  47.758  14.664  0.00  0.00    -0.201 OA
ATOM      9  O4  <0> d          13.245  46.418  13.857  0.00  0.00    -0.201 OA
BRANCH   7  10
ATOM     10  N1  <0> d          12.939  48.751  13.097  0.00  0.00    -0.324 N 
ATOM     11  H5  <0> d          12.413  49.552  12.954  0.00  0.00     0.169 HD
ATOM     12  H6  <0> d          13.893  48.759  12.922  0.00  0.00     0.169 HD
ENDBRANCH   7  10
ENDBRANCH   3   7
BRANCH   6  13
ATOM     13  C7  <0> d           8.862  45.246   9.124  0.00  0.00     0.209 C 
ATOM     14  O2  <0> d           7.643  45.276   9.199  0.00  0.00    -0.644 OA
ATOM     15  O1  <0> d           9.402  44.782   8.129  0.00  0.00    -0.644 OA
ENDBRANCH   6  13
TORSDOF 3
ENDMDL
