MODEL 1
REMARK VINA RESULT:    -8.870      0.000      0.000
REMARK INTER + INTRA:          -8.870
REMARK INTER:                  -8.870
REMARK INTRA:                   0.000
REMARK CONF_INDEPENDENT:        0.000
REMARK UNBOUND:                -0.000
REMARK  0 active torsions:
REMARK  status: ('A' for Active; 'I' for Inactive)
ROOT
ATOM      1  C1  <0> d          13.192  58.447  12.157  0.00  0.00     0.021 C 
ATOM      2  C2  <0> d          14.667  58.839  12.050  0.00  0.00     0.088 C 
ATOM      3  C3  <0> d          15.541  57.585  11.814  0.00  0.00     0.033 C 
ATOM      4  C4  <0> d          14.740  56.341  12.196  0.00  0.00     0.010 C 
ATOM      5  C5  <0> d          15.624  55.116  11.967  0.00  0.00     0.018 C 
ATOM      6  C6  <0> d          16.818  55.121  12.868  0.00  0.00     0.000 C 
ATOM      7  C7  <0> d          16.606  54.162  14.012  0.00  0.00    -0.009 C 
ATOM      8  C8  <0> d          17.472  54.205  15.042  0.00  0.00     0.052 C 
ATOM      9  C9  <0> d          18.537  55.237  14.929  0.00  0.00     0.177 C 
ATOM     10  O1  <0> d          19.690  55.028  15.256  0.00  0.00    -0.288 OA
ATOM     11  C10 <0> d          18.083  56.545  14.387  0.00  0.00    -0.006 C 
ATOM     12  C11 <0> d          17.201  56.478  13.361  0.00  0.00    -0.029 C 
ATOM     13  C12 <0> d          16.700  57.772  12.803  0.00  0.00     0.167 C 
ATOM     14  O2  <0> d          16.149  58.595  13.874  0.00  0.00    -0.311 OA
ATOM     15  C13 <0> d          15.189  59.394  13.387  0.00  0.00     0.263 C 
ATOM     16  O3  <0> d          14.794  60.406  13.915  0.00  0.00    -0.265 OA
ATOM     17  C14 <0> d          18.571  57.858  14.943  0.00  0.00     0.052 C 
ATOM     18  C15 <0> d          17.998  54.589  12.053  0.00  0.00     0.025 C 
ENDROOT
TORSDOF 0
ENDMDL
